
*** ChampSim Multicore Out-of-Order Simulator ***

Warmup Instructions: 0
Prefetch Warmup Instructions: 1000000
Simulation Instructions: 1000000
Number of CPUs: 1
LLC sets: 2048
LLC ways: 16
Off-chip DRAM Size: 4096 MB Channels: 1 Width: 64-bit Data Rate: 3200 MT/s

CPU 0 runs /Users/DHRUVA/Desktop/HLR/Champsim/dpc3_traces/482.sphinx3-s2.trace.gz
Computed seed: 165
2, 12, 5cb41dc40440, 407cae, 0

Warmup complete CPU 0 instructions: 2 cycles: 15 (Simulation time: 0 hr 0 min 0 sec) 

3, 53, 5cb41dc41440, 407cb3, 0
146, 288, 5cb41dc40480, 407cae, 0
169, 289, 5cb41dc3fd00, 407ca8, 0
147, 295, 5cb41dc41480, 407cb3, 0
241, 625, 5cb41dc42b80, 407cd5, 0
242, 626, 5cb41dc43300, 407cdc, 0
246, 849, 5cb41dc445c0, 407cea, 0
248, 1182, 5cb41dc462c0, 407cf3, 0
256, 1625, 5cb41dc47a80, 41bd36, 0
259, 1642, 5cb41dc48140, 407cfc, 0
263, 1980, 5cb41dc47a00, 407c7c, 0
262, 1981, 5cb41dc432c0, 407c78, 0
274, 2085, 5cb41dc3fc40, 407ca8, 0
286, 2086, 5cb41dc3fc80, 407ca8, 0
269, 2200, 5cb41dc492c0, 407c96, 0
265, 2316, 5cb41dc4a3c0, 407c86, 0
267, 2317, 5cb41dc4b3c0, 407c8e, 0
276, 2441, 5cb41dc41500, 407cb3, 0
288, 2442, 5cb41dc41540, 407cb3, 0
275, 2492, 5cb41dc40500, 407cae, 0
287, 2493, 5cb41dc40540, 407cae, 0
479, 2757, 5cb41dc40580, 407cae, 0
480, 2766, 5cb41dc41580, 407cb3, 0
671, 2953, 5cb41dc405c0, 407cae, 0
672, 2961, 5cb41dc415c0, 407cb3, 0
749, 3186, 5cb41dc46300, 407cf3, 0
758, 3440, 5cb41dc4ca80, 41bd12, 0
763, 3793, 5cb41dc4dc80, 41bd26, 0
773, 3830, 5cb41dc44600, 407d11, 0
783, 4322, 5cb41dc44640, 4023ff, 0
790, 4719, 5cb41dc446c0, 4029b6, 0
791, 4720, 5cb41dc44700, 4029ba, 0
792, 4728, 5cb41dc44680, 4029c2, 0
800, 4954, 5cb41dc47780, 4026b9, 0
797, 4971, 5cb41dc50f80, 4026af, 0
817, 5335, 5cb41dc51580, 402674, 0
825, 5568, 5cb41dc53e00, 402699, 0
827, 5792, 5cb41dc477c0, 40269e, 0
877, 6554, 5cb41dc42c40, 421ec9, 0
878, 6559, 5cb41dc42c00, 421ecd, 0
884, 6787, 5cb41dc55240, 421ee4, 0
885, 7120, 5cb41dc57440, 421ee8, 0
902, 7449, 5cb41dc58500, 422000, 0
905, 7782, 5cb41dc59d80, 42200b, 0
906, 8015, 5cb41dc5aa00, 42200f, 0
908, 8248, 5cb41dc5b580, 422017, 0
933, 8593, 5cb41dc58540, 422013, 0
918, 8594, 5cb41dc5cf40, 42200b, 0
931, 8610, 5cb41dc5d900, 42200b, 0
944, 8817, 5cb41dc59a00, 42200b, 0
957, 8818, 5cb41dc59500, 42200b, 0
970, 8819, 5cb41dc5c840, 42200b, 0
996, 8820, 5cb41dc5dc80, 42200b, 0
932, 8926, 5cb41dc590c0, 42200f, 0
984, 8943, 5cb41dc5e900, 42200f, 0
919, 8949, 5cb41dc5a180, 42200f, 0
945, 9049, 5cb41dc5aa40, 42200f, 0
958, 9050, 5cb41dc5ea00, 42200f, 0
971, 9165, c3e40f98b200, 42200f, 0
997, 9265, 5cb41dc5e9c0, 42200f, 0
934, 9281, c3e40f98c240, 422017, 0
986, 9282, c3e40f98de40, 422017, 0
921, 9283, c3e40f98d5c0, 422017, 0
947, 9284, c3e40f98da80, 422017, 0
960, 9288, 5cb41dc5ba40, 422017, 0
999, 9496, 5cb41dc5bb80, 422017, 0
973, 9498, c3e40f98e940, 422017, 0
1095, 10485, 5cb41dc47ac0, 41be70, 0
1109, 10512, 5cb41dc4a400, 407c86, 0
1111, 10513, 5cb41dc4b400, 407c8e, 0
1113, 10522, 5cb41dc49300, 407c96, 0
1120, 10745, 5cb41dc41980, 407cb3, 0
1119, 10790, 5cb41dc40980, 407cae, 0
1311, 11038, 5cb41dc409c0, 407cae, 0
1312, 11044, 5cb41dc419c0, 407cb3, 0
1503, 11359, 5cb41dc40a00, 407cae, 0
1504, 11370, 5cb41dc41a00, 407cb3, 0
1822, 12003, 5cb41dc43400, 402350, 0
1837, 12012, 5cb41dc55280, 421ee4, 0
1838, 12236, 5cb41dc575c0, 421ee8, 0
1855, 12370, 5cb41dc58740, 422000, 0
1886, 12374, 5cb41dc58780, 422013, 0
1858, 12594, 5cb41dc599c0, 42200b, 0
1884, 12694, 5cb41dc59f00, 42200b, 0
1910, 12794, 5cb41dc5ca00, 42200b, 0
1936, 12795, 5cb41dc5c800, 42200b, 0
1923, 12796, 5cb41dc5d1c0, 42200b, 0
1897, 12810, c3e40f98f380, 42200b, 0
1949, 12811, c3e40f98fd40, 42200b, 0
1872, 12812, c3e40f990200, 42200f, 0
1859, 12817, 5cb41dc5a2c0, 42200f, 0
1885, 12918, c3e40f98bbc0, 42200f, 0
1924, 12926, c3e40f98b780, 42200f, 0
1911, 13018, c3e40f990f80, 42200f, 0
1950, 13042, c3e40f990d00, 42200f, 0
1898, 13142, 5cb41dc5e880, 42200f, 0
1861, 13159, c3e40f991780, 422017, 0
1926, 13166, c3e40f98e8c0, 422017, 0
1887, 13167, c3e40f98d980, 422017, 0
1874, 13220, c3e40f98e080, 422017, 0
1913, 13242, c3e40f991280, 422017, 0
1900, 13266, c3e40f98d400, 422017, 0
1952, 13274, c3e40f98ec40, 422017, 0
2062, 13702, 5cb41dc4a580, 407c86, 0
2064, 13703, 5cb41dc4b580, 407c8e, 0
2066, 13712, 5cb41dc493c0, 407c96, 0
2073, 14133, c3e40f9926c0, 407cb3, 0
2072, 14150, c3e40f9936c0, 407cae, 0
2264, 14455, c3e40f993700, 407cae, 0
2265, 14458, c3e40f992700, 407cb3, 0
2456, 14650, c3e40f993740, 407cae, 0
2457, 14655, c3e40f992740, 407cb3, 0
2546, 14976, 5cb41dc463c0, 407cf3, 0
2676, 15140, 5cb41dc57600, 421ee8, 0
2693, 15374, 5cb41dc587c0, 422000, 0
2759, 15382, 5cb41dc58800, 422003, 0
2761, 15506, 5cb41dc59bc0, 42200b, 0
2774, 15507, 5cb41dc5b140, 42200b, 0
2787, 15508, 5cb41dc5b300, 42200b, 0
2696, 15598, 5cb41dc59940, 42200b, 0
2722, 15599, 5cb41dc59880, 42200b, 0
2709, 15600, c3e40f98f580, 42200b, 0
2735, 15601, 5cb41dc5c140, 42200b, 0
2748, 15602, c3e40f98f600, 42200b, 0
2762, 15649, c3e40f98b800, 42200f, 0
2775, 15731, 5cb41dc59240, 42200f, 0
2788, 15739, 5cb41dc5a8c0, 42200f, 0
2697, 15782, c3e40f98b500, 42200f, 0
2723, 15823, c3e40f98b100, 42200f, 0
2710, 15831, c3e40f990680, 42200f, 0
2749, 15839, c3e40f98bdc0, 42200f, 0
2736, 15847, 5cb41dc5ad40, 42200f, 0
2764, 15890, c3e40f98d580, 422017, 0
2777, 15955, 5cb41dc5be00, 422017, 0
2790, 15963, c3e40f98da00, 422017, 0
2712, 16055, c3e40f9916c0, 422017, 0
2725, 16063, 5cb41dc5b640, 422017, 0
2751, 16071, c3e40f98dc80, 422017, 0
2909, 16461, 5cb41dc43440, 407c92, 0
2916, 16694, c3e40f993900, 407cae, 0
2964, 16696, c3e40f993940, 407cae, 0
2917, 16711, c3e40f992900, 407cb3, 0
2965, 16713, c3e40f992940, 407cb3, 0
3156, 17001, c3e40f993980, 407cae, 0
3157, 17006, c3e40f992980, 407cb3, 0
3348, 17325, c3e40f9939c0, 407cae, 0
3349, 17333, c3e40f9929c0, 407cb3, 0
3407, 17661, 5cb41dc4a5c0, 407c86, 0
3409, 17662, 5cb41dc4b5c0, 407c8e, 0
3418, 17887, c3e40f992b80, 407cb3, 0
3514, 17891, c3e40f992bc0, 407cb3, 0
3417, 17938, c3e40f993b80, 407cae, 0
3513, 17942, c3e40f993bc0, 407cae, 0
3705, 18213, c3e40f993c00, 407cae, 0
3706, 18219, c3e40f992c00, 407cb3, 0
3891, 18561, 5cb41dc46400, 407cf3, 0
3924, 18934, c3e40f993cc0, 407cae, 0
3905, 18935, c3e40f994480, 41bd26, 0
3925, 18937, c3e40f992cc0, 407cb3, 0
4044, 19162, c3e40f993d00, 407cae, 0
4045, 19171, c3e40f992d00, 407cb3, 0
4236, 19393, c3e40f993d40, 407cae, 0
4237, 19408, c3e40f992d40, 407cb3, 0
4412, 19748, c3e40f995a40, 41bd26, 0
4461, 19814, 5cb41dc50fc0, 402660, 0
4610, 20154, 5cb41dc434c0, 402350, 0
4625, 20155, 5cb41dc552c0, 421ee4, 0
4626, 20529, 5cb41dc57740, 421ee8, 0
4643, 20763, 5cb41dc58980, 422000, 0
4674, 20767, 5cb41dc589c0, 422013, 0
4685, 20891, c3e40f98fbc0, 42200b, 0
4698, 20892, 5cb41dc5dec0, 42200b, 0
4711, 20893, 5cb41dc5d640, 42200b, 0
4724, 20894, 5cb41dc5cc80, 42200b, 0
4737, 20895, 5cb41dc5c580, 42200b, 0
4646, 20987, 5cb41dc5dfc0, 42200b, 0
4672, 20988, 5cb41dc5de00, 42200b, 0
4659, 20989, c3e40f98fec0, 42200b, 0
4701, 21024, c3e40f991b80, 422017, 0
4738, 21038, 5cb41dc5a5c0, 42200f, 0
4686, 21115, c3e40f98b540, 42200f, 0
4712, 21123, c3e40f9907c0, 42200f, 0
4725, 21131, 5cb41dc5a040, 42200f, 0
4660, 21220, c3e40f990600, 42200f, 0
4673, 21221, 5cb41dc5e640, 42200f, 0
4727, 21256, c3e40f98c180, 422017, 0
4647, 21266, 5cb41dc5eb00, 42200f, 0
4688, 21339, c3e40f991bc0, 422017, 0
4675, 21347, c3e40f991700, 422017, 0
4662, 21444, c3e40f98dfc0, 422017, 0
4714, 21468, c3e40f991fc0, 422017, 0
4649, 21490, c3e40f991f40, 422017, 0
4851, 21925, 5cb41dc43500, 407c8a, 0
4850, 21933, 5cb41dc4a6c0, 407c86, 0
4852, 22150, 5cb41dc4b700, 407c8e, 0
4854, 22158, 5cb41dc49480, 407c96, 0
4861, 22374, c3e40f9962c0, 407cb3, 0
4860, 22391, c3e40f9972c0, 407cae, 0
5028, 22687, c3e40f997300, 407cae, 0
5029, 22696, c3e40f996300, 407cb3, 0
5220, 22983, c3e40f997340, 407cae, 0
5221, 22989, c3e40f996340, 407cb3, 0
5334, 23218, 5cb41dc46480, 407cf3, 0
5465, 23536, 5cb41dc515c0, 402674, 0
5517, 23660, 5cb41dc43580, 402350, 0
5533, 23671, 5cb41dc57840, 421ee8, 0
5550, 23804, 5cb41dc58b00, 422000, 0
5581, 23808, 5cb41dc58b40, 422013, 0
5553, 24028, 5cb41dc5d740, 42200b, 0
5566, 24029, c3e40f98f9c0, 42200b, 0
5579, 24030, c3e40f98f080, 42200b, 0
5592, 24036, 5cb41dc5c080, 42200b, 0
5605, 24037, 5cb41dc5c940, 42200b, 0
5631, 24038, 5cb41dc5c500, 42200b, 0
5618, 24039, c3e40f98f440, 42200b, 0
5556, 24160, 5cb41dc5bf00, 422017, 0
5608, 24211, c3e40f98e780, 422017, 0
5569, 24261, c3e40f991500, 422017, 0
5580, 24270, 5cb41dc5eb80, 42200f, 0
5619, 24271, 5cb41dc5ea80, 42200f, 0
5595, 24420, c3e40f991300, 422017, 0
5621, 24463, c3e40f991dc0, 422017, 0
5582, 24586, 5cb41dc5bbc0, 422017, 0
5632, 24852, 5cb41dc5af40, 42200f, 0
5645, 24869, 5cb41dc5efc0, 42200f, 0
5634, 24976, c3e40f98e840, 422017, 0
5760, 25213, 5cb41dc4a7c0, 407c86, 0
5762, 25214, 5cb41dc4b7c0, 407c8e, 0
5764, 25223, 5cb41dc49500, 407c96, 0
5771, 25644, c3e40f998580, 407cb3, 0
5831, 25645, c3e40f9985c0, 407cb3, 0
5770, 25661, c3e40f999580, 407cae, 0
5830, 25663, c3e40f9995c0, 407cae, 0
6022, 25985, c3e40f999600, 407cae, 0
6023, 26000, c3e40f998600, 407cb3, 0
6214, 26281, c3e40f999640, 407cae, 0
6215, 26285, c3e40f998640, 407cb3, 0
6244, 26579, 5cb41dc46500, 407cf3, 0
6261, 26742, 5cb41dc4a800, 407c86, 0
6263, 26743, 5cb41dc4b800, 407c8e, 0
6272, 26967, c3e40f998880, 407cb3, 0
6296, 26968, c3e40f9988c0, 407cb3, 0
6271, 27018, c3e40f999880, 407cae, 0
6295, 27019, c3e40f9998c0, 407cae, 0
6487, 27295, c3e40f999900, 407cae, 0
6488, 27298, c3e40f998900, 407cb3, 0
6679, 27590, c3e40f999940, 407cae, 0
6680, 27595, c3e40f998940, 407cb3, 0
6927, 28145, 5cb41dc43600, 402350, 0
6942, 28154, 5cb41dc55300, 421ee4, 0
6943, 28378, 5cb41dc57940, 421ee8, 0
6960, 28611, 5cb41dc58c80, 422000, 0
6991, 28615, 5cb41dc58cc0, 422013, 0
6963, 28835, 5cb41dc59d00, 42200b, 0
6976, 28836, c3e40f98fa80, 42200b, 0
6989, 28837, 5cb41dc5dc00, 42200b, 0
7002, 28843, c3e40f98fe80, 42200b, 0
7015, 28844, c3e40f98fdc0, 42200b, 0
7028, 28845, c3e40f98f180, 42200b, 0
6964, 28968, 5cb41dc5eec0, 42200f, 0
6977, 29060, 5cb41dc5acc0, 42200f, 0
6990, 29068, c3e40f98b6c0, 42200f, 0
7016, 29076, c3e40f98b700, 42200f, 0
7029, 29084, c3e40f98b600, 42200f, 0
6966, 29092, c3e40f98c040, 422017, 0
7003, 29111, 5cb41dc5ef40, 42200f, 0
7018, 29300, c3e40f991000, 422017, 0
7031, 29308, c3e40f991040, 422017, 0
6992, 29336, c3e40f991ac0, 422017, 0
7042, 29582, 5cb41dc5a280, 42200f, 0
7054, 29583, 5cb41dc5c480, 42200b, 0
7044, 29806, 5cb41dc5b780, 422017, 0
7055, 29857, 5cb41dc5e3c0, 42200f, 0
7057, 30081, c3e40f98dcc0, 422017, 0
7174, 30429, 5cb41dc43640, 407c8a, 0
7173, 30437, 5cb41dc4a8c0, 407c86, 0
7175, 30654, 5cb41dc4b900, 407c8e, 0
7177, 30662, 5cb41dc49580, 407c96, 0
7184, 30780, c3e40f99a9c0, 407cb3, 0
7183, 30987, c3e40f99b9c0, 407cae, 0
7351, 31123, c3e40f99ba00, 407cae, 0
7352, 31130, c3e40f99aa00, 407cb3, 0
7543, 31347, c3e40f99ba40, 407cae, 0
7544, 31350, c3e40f99aa40, 407cb3, 0
7657, 31652, 5cb41dc46580, 407cf3, 0
7674, 31805, 5cb41dc4a900, 407c86, 0
7684, 31814, c3e40f99bb00, 407cae, 0
7685, 31929, c3e40f99ab00, 407cb3, 0
7876, 32177, c3e40f99bb40, 407cae, 0
7877, 32185, c3e40f99ab40, 407cb3, 0
8068, 32473, c3e40f99bb80, 407cae, 0
8069, 32478, c3e40f99ab80, 407cb3, 0
8172, 32848, c3e40f995b40, 41bd26, 0
8299, 32903, c3e40f99bbc0, 407cae, 0
8300, 32972, c3e40f99abc0, 407cb3, 0
8491, 33147, c3e40f99bc00, 407cae, 0
8492, 33162, c3e40f99ac00, 407cb3, 0
8679, 33504, c3e40f99c1c0, 41bd26, 0
8808, 33771, 5cb41dc43680, 402350, 0
8824, 33780, 5cb41dc579c0, 421ee8, 0
8841, 34014, 5cb41dc58d40, 422000, 0
8872, 34018, 5cb41dc58d80, 422013, 0
8844, 34238, 5cb41dc5db40, 42200b, 0
8857, 34239, 5cb41dc5cb00, 42200b, 0
8909, 34248, 5cb41dc5ddc0, 42200b, 0
8871, 34249, 5cb41dc5a380, 42200f, 0
8884, 34255, c3e40f990c00, 42200f, 0
8936, 34256, c3e40f990640, 42200f, 0
8845, 34362, c3e40f98b980, 42200f, 0
8923, 34372, c3e40f9906c0, 42200f, 0
8910, 34381, 5cb41dc5ea40, 42200f, 0
8886, 34388, 5cb41dc5b500, 422017, 0
8938, 34396, 5cb41dc5bfc0, 422017, 0
8860, 34471, c3e40f991140, 422017, 0
8847, 34586, c3e40f991640, 422017, 0
8925, 34596, 5cb41dc5b340, 422017, 0
8912, 34605, c3e40f98ed40, 422017, 0
9051, 35127, 5cb41dc4a940, 407c86, 0
9053, 35128, 5cb41dc4b980, 407c8e, 0
9055, 35137, 5cb41dc495c0, 407c96, 0
9062, 35559, c3e40f99e380, 407cb3, 0
9061, 35563, c3e40f99f380, 407cae, 0
9229, 35876, c3e40f99f3c0, 407cae, 0
9230, 35885, c3e40f99e3c0, 407cb3, 0
9421, 36172, c3e40f99f400, 407cae, 0
9422, 36178, c3e40f99e400, 407cb3, 0
9535, 36409, 5cb41dc465c0, 407cf3, 0
9552, 36672, 5cb41dc4a980, 407c86, 0
9562, 36680, c3e40f99f4c0, 407cae, 0
9563, 36900, c3e40f99e4c0, 407cb3, 0
9754, 37045, c3e40f99f500, 407cae, 0
9755, 37051, c3e40f99e500, 407cb3, 0
9946, 37367, c3e40f99f540, 407cae, 0
9947, 37378, c3e40f99e540, 407cb3, 0
10122, 37767, c3e40f9a0000, 402660, 0
10050, 37902, c3e40f9a18c0, 41bd26, 0
10202, 38172, 5cb41dc436c0, 402350, 0
10218, 38413, 5cb41dc57a80, 421ee8, 0
10235, 38647, 5cb41dc58e80, 422000, 0
10301, 38655, 5cb41dc58ec0, 422003, 0
10251, 38772, 5cb41dc5c040, 42200b, 0
10277, 38773, 5cb41dc5da80, 42200b, 0
10290, 38774, 5cb41dc5d8c0, 42200b, 0
10239, 38779, c3e40f98b2c0, 42200f, 0
10267, 38788, c3e40f991380, 422017, 0
10303, 38879, 5cb41dc5c600, 42200b, 0
10316, 38880, 5cb41dc5c540, 42200b, 0
10278, 38897, c3e40f9908c0, 42200f, 0
10293, 38938, c3e40f991680, 422017, 0
10252, 38996, c3e40f990e80, 42200f, 0
10330, 39005, 5cb41dc5ed40, 42200f, 0
10304, 39103, c3e40f990780, 42200f, 0
10317, 39111, 5cb41dc5a580, 42200f, 0
10332, 39170, c3e40f98e5c0, 422017, 0
10254, 39213, c3e40f991cc0, 422017, 0
10451, 39541, 5cb41dc43700, 407c78, 0
10454, 39767, 5cb41dc4aa00, 407c86, 0
10456, 39768, 5cb41dc4ba00, 407c8e, 0
10458, 39775, 5cb41dc49600, 407c96, 0
10465, 40198, c3e40f9a2180, 407cb3, 0
10464, 40215, c3e40f9a3180, 407cae, 0
10620, 40511, c3e40f9a31c0, 407cae, 0
10621, 40524, c3e40f9a21c0, 407cb3, 0
10812, 40807, c3e40f9a3200, 407cae, 0
10813, 40813, c3e40f9a2200, 407cb3, 0
10955, 41139, 5cb41dc4aa40, 407c86, 0
10957, 41140, 5cb41dc4ba40, 407c8e, 0
10938, 41149, 5cb41dc46600, 407cf3, 0
10966, 41365, c3e40f9a2340, 407cb3, 0
11062, 41369, c3e40f9a2380, 407cb3, 0
10965, 41417, c3e40f9a3340, 407cae, 0
11061, 41421, c3e40f9a3380, 407cae, 0
11253, 41680, c3e40f9a33c0, 407cae, 0
11254, 41685, c3e40f9a23c0, 407cb3, 0
11439, 41930, 5cb41dc46640, 407cf3, 0
11485, 42205, c3e40f9a3400, 407cae, 0
11486, 42210, c3e40f9a2400, 407cb3, 0
11454, 42213, c3e40f9a4840, 41bd26, 0
11677, 42529, c3e40f9a3440, 407cae, 0
11678, 42541, c3e40f9a2440, 407cb3, 0
11869, 42725, c3e40f9a3480, 407cae, 0
11870, 42734, c3e40f9a2480, 407cb3, 0
11961, 43064, c3e40f9a4c40, 41bd26, 0
12100, 43225, c3e40f9a34c0, 407cae, 0
12101, 43233, c3e40f9a24c0, 407cb3, 0
12292, 43521, c3e40f9a3500, 407cae, 0
12293, 43526, c3e40f9a2500, 407cb3, 0
12468, 43907, c3e40f9940c0, 41bd26, 0
12523, 43921, c3e40f9a3540, 407cae, 0
12524, 43924, c3e40f9a2540, 407cb3, 0
12715, 44194, c3e40f9a3580, 407cae, 0
12716, 44209, c3e40f9a2580, 407cb3, 0
12907, 44390, c3e40f9a35c0, 407cae, 0
12908, 44398, c3e40f9a25c0, 407cb3, 0
12976, 44647, c3e40f99cb80, 41bd26, 0
13105, 44954, 5cb41dc43740, 402350, 0
13120, 44963, 5cb41dc55340, 421ee4, 0
13121, 45329, 5cb41dc57b00, 421ee8, 0
13138, 45563, 5cb41dc58f40, 422000, 0
13204, 45571, 5cb41dc58f80, 422003, 0
13141, 45687, 5cb41dc59d40, 42200b, 0
13154, 45688, 5cb41dc5d300, 42200b, 0
13167, 45689, 5cb41dc5d500, 42200b, 0
13180, 45690, c3e40f98f2c0, 42200b, 0
13193, 45691, 5cb41dc5df00, 42200b, 0
13232, 45796, 5cb41dc5d200, 42200b, 0
13207, 45812, 5cb41dc5e740, 42200f, 0
13142, 45813, 5cb41dc5edc0, 42200f, 0
13220, 45814, 5cb41dc5aa80, 42200f, 0
13155, 45819, c3e40f98b4c0, 42200f, 0
13168, 45870, c3e40f990440, 42200f, 0
13181, 45914, 5cb41dc5a740, 42200f, 0
13196, 45930, c3e40f98c000, 422017, 0
13209, 45936, c3e40f98e880, 422017, 0
13233, 46020, 5cb41dc5e780, 42200f, 0
13144, 46037, c3e40f991200, 422017, 0
13222, 46045, c3e40f98e100, 422017, 0
13183, 46053, c3e40f98d600, 422017, 0
13170, 46094, c3e40f991880, 422017, 0
13235, 46144, 5cb41dc5b600, 422017, 0
13345, 46620, 5cb41dc4aac0, 407c86, 0
13347, 46628, 5cb41dc4bac0, 407c8e, 0
13349, 46637, 5cb41dc49640, 407c96, 0
13356, 46844, c3e40f9a2d00, 407cb3, 0
13355, 46895, c3e40f9a3d00, 407cae, 0
13451, 47143, c3e40f9a3d40, 407cae, 0
13452, 47152, c3e40f9a2d40, 407cb3, 0
13643, 47439, c3e40f9a3d80, 407cae, 0
13644, 47445, c3e40f9a2d80, 407cb3, 0
13829, 47792, 5cb41dc46680, 407cf3, 0
13989, 48039, 5cb41dc437c0, 402350, 0
14005, 48050, 5cb41dc57bc0, 421ee8, 0
14022, 48523, c3e40f9a5040, 422000, 0
14053, 48527, c3e40f9a5080, 422013, 0
14025, 48747, 5cb41dc5cac0, 42200b, 0
14051, 48748, 5cb41dc5d100, 42200b, 0
14064, 48755, 5cb41dc59b80, 42200b, 0
14077, 48756, 5cb41dc5d9c0, 42200b, 0
14041, 48763, c3e40f98eb40, 422017, 0
14078, 48889, 5cb41dc5ec40, 42200f, 0
14026, 48971, 5cb41dc5ae00, 42200f, 0
14052, 48979, 5cb41dc5a6c0, 42200f, 0
14065, 48987, c3e40f98b0c0, 42200f, 0
14028, 49095, c3e40f98d340, 422017, 0
14067, 49254, c3e40f98c2c0, 422017, 0
14080, 49387, c3e40f98dc00, 422017, 0
14103, 49395, 5cb41dc59a80, 42200b, 0
14091, 49403, c3e40f98b840, 42200f, 0
14117, 49419, 5cb41dc5e380, 42200f, 0
14119, 49543, c3e40f98e700, 422017, 0
14093, 49627, c3e40f991c40, 422017, 0
14106, 49628, c3e40f98d6c0, 422017, 0
14229, 49867, 5cb41dc4ab80, 407c86, 0
14231, 49868, 5cb41dc4bb80, 407c8e, 0
14233, 49876, 5cb41dc496c0, 407c96, 0
14240, 50298, c3e40f9a6bc0, 407cb3, 0
14239, 50315, c3e40f9a7bc0, 407cae, 0
14431, 50590, c3e40f9a7c00, 407cae, 0
14432, 50822, c3e40f9a6c00, 407cb3, 0
14623, 50967, c3e40f9a7c40, 407cae, 0
14624, 50973, c3e40f9a6c40, 407cb3, 0
14713, 51270, 5cb41dc466c0, 407cf3, 0
14850, 51470, 5cb41dc43800, 402350, 0
14866, 51487, 5cb41dc57c40, 421ee8, 0
14883, 51790, c3e40f9a5100, 422000, 0
14914, 51794, c3e40f9a5140, 422013, 0
14886, 52014, 5cb41dc5da40, 42200b, 0
14899, 52015, c3e40f98f4c0, 42200b, 0
14912, 52016, 5cb41dc5c200, 42200b, 0
14977, 52024, 5cb41dc5dc40, 42200b, 0
14939, 52030, c3e40f98bcc0, 42200f, 0
14926, 52039, c3e40f98b480, 42200f, 0
14967, 52048, c3e40f98dd00, 422017, 0
14887, 52138, c3e40f98bc80, 42200f, 0
14980, 52197, 5cb41dc5b740, 422017, 0
14915, 52255, c3e40f98d180, 422017, 0
14941, 52290, c3e40f991940, 422017, 0
14889, 52314, c3e40f98d900, 422017, 0
15093, 52672, 5cb41dc4ac00, 407c86, 0
15095, 52673, 5cb41dc4bc00, 407c8e, 0
15097, 52682, 5cb41dc49700, 407c96, 0
15104, 53103, c3e40f9a8580, 407cb3, 0
15103, 53120, c3e40f9a9580, 407cae, 0
15295, 53428, c3e40f9a95c0, 407cae, 0
15296, 53438, c3e40f9a85c0, 407cb3, 0
15487, 53623, c3e40f9a9600, 407cae, 0
15488, 53853, c3e40f9a8600, 407cb3, 0
15577, 54006, 5cb41dc46700, 407cf3, 0
15712, 54132, c3e40f9a9640, 407cae, 0
15713, 54140, c3e40f9a8640, 407cb3, 0
15904, 54455, c3e40f9a9680, 407cae, 0
15905, 54469, c3e40f9a8680, 407cb3, 0
16093, 54935, c3e40f9aa6c0, 41bd26, 0
16215, 55213, 5cb41dc57c80, 421ee8, 0
16232, 55447, c3e40f9a5180, 422000, 0
16298, 55455, c3e40f9a51c0, 422003, 0
16235, 55571, 5cb41dc597c0, 42200b, 0
16287, 55573, 5cb41dc5c980, 42200b, 0
16274, 55574, c3e40f98f640, 42200b, 0
16313, 55580, 5cb41dc59e40, 42200b, 0
16326, 55581, 5cb41dc5de40, 42200b, 0
16249, 55582, c3e40f98b1c0, 42200f, 0
16262, 55583, 5cb41dc5afc0, 42200f, 0
16303, 55595, c3e40f98e440, 422017, 0
16275, 55811, 5cb41dc5abc0, 42200f, 0
16290, 55812, c3e40f98d140, 422017, 0
16238, 55813, c3e40f98eb80, 422017, 0
16264, 55846, c3e40f98e6c0, 422017, 0
16251, 55997, c3e40f98e300, 422017, 0
16329, 56072, c3e40f98e640, 422017, 0
16277, 56148, 5cb41dc5b380, 422017, 0
16442, 56499, 5cb41dc43840, 407c78, 0
16447, 56726, 5cb41dc4bc40, 407c8e, 0
16456, 56744, c3e40f9a89c0, 407cb3, 0
16455, 56852, c3e40f9a99c0, 407cae, 0
16635, 57060, c3e40f9a9a00, 407cae, 0
16636, 57071, c3e40f9a8a00, 407cb3, 0
16827, 57256, c3e40f9a9a40, 407cae, 0
16828, 57262, c3e40f9a8a40, 407cb3, 0
16946, 57644, 5cb41dc4ac40, 407c86, 0
16956, 57652, c3e40f9a9ac0, 407cae, 0
16980, 57653, c3e40f9a9b00, 407cae, 0
16957, 57872, c3e40f9a8ac0, 407cb3, 0
16969, 57873, c3e40f9a8b00, 407cb3, 0
17160, 58024, c3e40f9a9b40, 407cae, 0
17161, 58033, c3e40f9a8b40, 407cb3, 0
17352, 58344, c3e40f9a9b80, 407cae, 0
17353, 58353, c3e40f9a8b80, 407cb3, 0
17430, 58637, 5cb41dc46740, 407cf3, 0
17444, 58908, c3e40f995340, 41bd26, 0
17583, 59135, c3e40f9a9bc0, 407cae, 0
17584, 59143, c3e40f9a8bc0, 407cb3, 0
17775, 59362, c3e40f9a9c00, 407cae, 0
17776, 59371, c3e40f9a8c00, 407cb3, 0
17951, 59608, c3e40f994b00, 41bd26, 0
18080, 59991, 5cb41dc43880, 402350, 0
18095, 59997, 5cb41dc55380, 421ee4, 0
18096, 60223, 5cb41dc57d00, 421ee8, 0
18113, 60457, c3e40f9a5240, 422000, 0
18179, 60465, c3e40f9a5280, 422003, 0
18116, 60681, 5cb41dc5d340, 42200b, 0
18142, 60682, 5cb41dc5b100, 42200b, 0
18207, 60691, 5cb41dc5cf80, 42200b, 0
18169, 60692, c3e40f9905c0, 42200f, 0
18182, 60698, c3e40f990700, 42200f, 0
18195, 60699, 5cb41dc5a940, 42200f, 0
18158, 60700, c3e40f98d2c0, 422017, 0
18143, 60806, c3e40f990f40, 42200f, 0
18130, 60905, c3e40f98bb40, 42200f, 0
18171, 60916, c3e40f9914c0, 422017, 0
18197, 60956, c3e40f98e240, 422017, 0
18184, 60964, 5cb41dc5bcc0, 422017, 0
18145, 61107, c3e40f98c200, 422017, 0
18320, 61515, 5cb41dc4acc0, 407c86, 0
18322, 61516, 5cb41dc4bcc0, 407c8e, 0
18324, 61523, 5cb41dc49740, 407c96, 0
18331, 61946, c3e40f9ab480, 407cb3, 0
18343, 61947, c3e40f9ab4c0, 407cb3, 0
18330, 61963, c3e40f9ac480, 407cae, 0
18342, 61964, c3e40f9ac4c0, 407cae, 0
18534, 62240, c3e40f9ac500, 407cae, 0
18535, 62247, c3e40f9ab500, 407cb3, 0
18726, 62562, c3e40f9ac540, 407cae, 0
18727, 62574, c3e40f9ab540, 407cb3, 0
18804, 62864, 5cb41dc46780, 407cf3, 0
18941, 63105, 5cb41dc438c0, 402350, 0
18957, 63117, 5cb41dc57d80, 421ee8, 0
18974, 63347, c3e40f9a5300, 422000, 0
19003, 63472, 5cb41dc59e80, 42200b, 0
18978, 63479, c3e40f990ac0, 42200f, 0
19004, 63705, 5cb41dc5ed80, 42200f, 0
19006, 63829, c3e40f98de80, 422017, 0
19040, 64063, c3e40f9a5340, 422003, 0
19029, 64068, 5cb41dc5cd80, 42200b, 0
19017, 64076, c3e40f990080, 42200f, 0
19042, 64187, 5cb41dc59680, 42200b, 0
19055, 64188, 5cb41dc59740, 42200b, 0
19030, 64195, 5cb41dc5ab00, 42200f, 0
19069, 64196, c3e40f98bac0, 42200f, 0
19019, 64300, 5cb41dc5b9c0, 422017, 0
19071, 64428, c3e40f98eac0, 422017, 0
19045, 64459, c3e40f98e000, 422017, 0
19181, 64692, 5cb41dc4ad40, 407c86, 0
19183, 64693, 5cb41dc4bd40, 407c8e, 0
19185, 64702, 5cb41dc49780, 407c96, 0
19192, 64919, c3e40f9abf00, 407cb3, 0
19191, 64970, c3e40f9acf00, 407cae, 0
19311, 64975, c3e40f9acf40, 407cae, 0
19312, 65197, c3e40f9abf40, 407cb3, 0
19503, 65368, c3e40f9acf80, 407cae, 0
19504, 65376, c3e40f9abf80, 407cb3, 0
19665, 65690, 5cb41dc467c0, 407cf3, 0
19802, 65956, 5cb41dc43900, 402350, 0
19818, 65969, 5cb41dc57e00, 421ee8, 0
19835, 66203, c3e40f9a53c0, 422000, 0
19901, 66211, c3e40f9a5400, 422003, 0
19864, 66428, 5cb41dc5d580, 42200b, 0
19877, 66429, 5cb41dc5d700, 42200b, 0
19890, 66430, 5cb41dc5df80, 42200b, 0
19903, 66435, 5cb41dc5d280, 42200b, 0
19917, 66443, 5cb41dc5aec0, 42200f, 0
19930, 66444, 5cb41dc5a600, 42200f, 0
19839, 66450, 5cb41dc5a880, 42200f, 0
19852, 66451, 5cb41dc5a3c0, 42200f, 0
19841, 66610, c3e40f98e1c0, 422017, 0
19880, 66668, c3e40f98e500, 422017, 0
19919, 66669, c3e40f991b40, 422017, 0
19867, 66670, c3e40f98d040, 422017, 0
19891, 66703, 5cb41dc5ac80, 42200f, 0
19893, 66827, c3e40f98ee80, 422017, 0
20045, 67160, 5cb41dc43940, 407c92, 0
20042, 67167, 5cb41dc4ad80, 407c86, 0
20044, 67168, 5cb41dc4bdc0, 407c8e, 0
20046, 67492, 5cb41dc497c0, 407c96, 0
20052, 67608, c3e40f9ad640, 407cae, 0
20053, 67609, c3e40f9ae640, 407cb3, 0
20124, 67902, c3e40f9ad680, 407cae, 0
20125, 67916, c3e40f9ae680, 407cb3, 0
20316, 68198, c3e40f9ad6c0, 407cae, 0
20317, 68204, c3e40f9ae6c0, 407cb3, 0
20508, 68520, c3e40f9ad700, 407cae, 0
20509, 68527, c3e40f9ae700, 407cb3, 0
20583, 68602, c3e40f9a0040, 402660, 0
20709, 68883, 5cb41dc439c0, 402350, 0
20724, 68892, 5cb41dc553c0, 421ee4, 0
20725, 69158, 5cb41dc57f00, 421ee8, 0
20742, 69383, c3e40f9a5540, 422000, 0
20746, 69615, c3e40f98bb00, 42200f, 0
20759, 69616, c3e40f9909c0, 42200f, 0
20748, 69839, c3e40f98ef80, 422017, 0
20808, 70082, c3e40f9a5580, 422003, 0
20784, 70088, 5cb41dc5d800, 42200b, 0
20797, 70089, 5cb41dc59b00, 42200b, 0
20787, 70220, c3e40f98e340, 422017, 0
20823, 70306, c3e40f98f880, 42200b, 0
20800, 70322, c3e40f98ec80, 422017, 0
20839, 70323, 5cb41dc5b440, 422017, 0
20813, 70331, c3e40f98c1c0, 422017, 0
20824, 70530, 5cb41dc5a900, 42200f, 0
20949, 70753, 5cb41dc4aec0, 407c86, 0
20951, 70754, 5cb41dc4bec0, 407c8e, 0
20953, 70763, 5cb41dc49840, 407c96, 0
20960, 71184, c3e40f9afc40, 407cb3, 0
20959, 71201, c3e40f9b0c40, 407cae, 0
21079, 71206, c3e40f9b0c80, 407cae, 0
21080, 71562, c3e40f9afc80, 407cb3, 0
21271, 71835, c3e40f9b0cc0, 407cae, 0
21272, 71838, c3e40f9afcc0, 407cb3, 0
21433, 72257, 5cb41dc46880, 407cf3, 0
21563, 72574, 5cb41dc57f40, 421ee8, 0
21611, 72812, c3e40f9a55c0, 422013, 0
21583, 72821, 5cb41dc5dd00, 42200b, 0
21597, 72830, 5cb41dc59140, 42200f, 0
21610, 72831, 5cb41dc5a9c0, 42200f, 0
21586, 72953, c3e40f98e580, 422017, 0
21599, 72954, c3e40f991c00, 422017, 0
21622, 73036, 5cb41dc5cc40, 42200b, 0
21635, 73037, 5cb41dc5b240, 42200b, 0
21661, 73038, 5cb41dc5dac0, 42200b, 0
21674, 73039, 5cb41dc5b2c0, 42200b, 0
21649, 73045, 5cb41dc592c0, 42200f, 0
21612, 73193, 5cb41dc5bf80, 422017, 0
21623, 73260, c3e40f990280, 42200f, 0
21636, 73311, 5cb41dc5aac0, 42200f, 0
21675, 73319, 5cb41dc5a540, 42200f, 0
21651, 73370, c3e40f98df40, 422017, 0
21638, 73435, c3e40f98e900, 422017, 0
21677, 73443, 5cb41dc5be80, 422017, 0
21625, 73484, c3e40f98dd80, 422017, 0
21788, 73786, 5cb41dc43a00, 407c8a, 0
21787, 73794, 5cb41dc4af00, 407c86, 0
21789, 74010, 5cb41dc4bf00, 407c8e, 0
21791, 74019, 5cb41dc49880, 407c96, 0
21798, 74235, c3e40f9b1000, 407cb3, 0
21797, 74252, c3e40f9b2000, 407cae, 0
21989, 74559, c3e40f9b2040, 407cae, 0
21990, 74569, c3e40f9b1040, 407cb3, 0
22181, 74890, c3e40f9b2080, 407cae, 0
22182, 74901, c3e40f9b1080, 407cb3, 0
22431, 75260, 5cb41dc43a40, 402350, 0
22447, 75386, c3e40f9b3000, 421ee8, 0
22464, 75515, c3e40f9a56c0, 422000, 0
22467, 75739, 5cb41dc5c900, 42200b, 0
22480, 75740, 5cb41dc5dcc0, 42200b, 0
22493, 75741, 5cb41dc593c0, 42200b, 0
22506, 75742, 5cb41dc59f40, 42200b, 0
22522, 75757, c3e40f98d880, 422017, 0
22494, 75865, c3e40f98bd40, 42200f, 0
22481, 75971, c3e40f990500, 42200f, 0
22468, 75972, 5cb41dc5e980, 42200f, 0
22470, 76203, 5cb41dc5b4c0, 422017, 0
22530, 76346, c3e40f9a5700, 422003, 0
22532, 76570, 5cb41dc5d480, 42200b, 0
22558, 76571, c3e40f98f040, 42200b, 0
22546, 76578, 5cb41dc5e4c0, 42200f, 0
22548, 76702, c3e40f991080, 422017, 0
22533, 76794, c3e40f990bc0, 42200f, 0
22559, 76802, c3e40f9901c0, 42200f, 0
22677, 77180, 5cb41dc43a80, 407c92, 0
22674, 77187, 5cb41dc4af80, 407c86, 0
22676, 77188, 5cb41dc4bfc0, 407c8e, 0
22678, 77413, 5cb41dc498c0, 407c96, 0
22684, 77429, c3e40f9b2d40, 407cae, 0
22756, 77432, c3e40f9b2d80, 407cae, 0
22685, 77436, c3e40f9b1d40, 407cb3, 0
22757, 77439, c3e40f9b1d80, 407cb3, 0
22948, 77769, c3e40f9b2dc0, 407cae, 0
22949, 77783, c3e40f9b1dc0, 407cb3, 0
23140, 78065, c3e40f9b2e00, 407cae, 0
23141, 78069, c3e40f9b1e00, 407cb3, 0
23175, 78090, 5cb41dc4afc0, 407c86, 0
23185, 78098, c3e40f9b2fc0, 407cae, 0
23158, 78262, 5cb41dc468c0, 407cf3, 0
23186, 78314, c3e40f9b1fc0, 407cb3, 0
23305, 78747, c3e40f9b4000, 407cae, 0
23306, 78764, c3e40f9b5000, 407cb3, 0
23497, 78943, c3e40f9b4040, 407cae, 0
23498, 78949, c3e40f9b5040, 407cb3, 0
23659, 79279, 5cb41dc46900, 407cf3, 0
23722, 79386, 5cb41dc51600, 40290b, 0
23842, 79670, 5cb41dc43b00, 402350, 0
23857, 79679, 5cb41dc55400, 421ee4, 0
23858, 79803, c3e40f9b3100, 421ee8, 0
23875, 80032, c3e40f9a5840, 422000, 0
23904, 80257, 5cb41dc5d380, 42200b, 0
23917, 80258, c3e40f98fd00, 42200b, 0
23918, 80489, c3e40f990340, 42200f, 0
23920, 80713, c3e40f9911c0, 422017, 0
23941, 80946, c3e40f9a5880, 422003, 0
23943, 81170, 5cb41dc59540, 42200b, 0
23956, 81171, 5cb41dc5c280, 42200b, 0
23959, 81410, c3e40f98ddc0, 422017, 0
24082, 81917, c3e40f9b6080, 407c86, 0
24084, 81918, c3e40f9b70c0, 407c8e, 0
24086, 81919, 5cb41dc49940, 407c96, 0
24093, 82351, c3e40f9b80c0, 407cb3, 0
24165, 82354, c3e40f9b8100, 407cb3, 0
24092, 82356, c3e40f9b90c0, 407cae, 0
24164, 82359, c3e40f9b9100, 407cae, 0
24356, 82674, c3e40f9b9140, 407cae, 0
24357, 82688, c3e40f9b8140, 407cb3, 0
24548, 82970, c3e40f9b9180, 407cae, 0
24549, 82975, c3e40f9b8180, 407cb3, 0
24566, 83267, 5cb41dc46940, 407cf3, 0
24696, 83546, c3e40f9b3140, 421ee8, 0
24744, 83784, c3e40f9a58c0, 422013, 0
24755, 84009, 5cb41dc5c3c0, 42200b, 0
24810, 84026, 5cb41dc5bc40, 422017, 0
24782, 84027, 5cb41dc5ed00, 42200f, 0
24797, 84035, c3e40f991e80, 422017, 0
24756, 84233, c3e40f990b80, 42200f, 0
24758, 84457, c3e40f98d700, 422017, 0
24921, 84778, 5cb41dc43b40, 407c8a, 0
24920, 84786, c3e40f9b60c0, 407c86, 0
24922, 85003, c3e40f9b7100, 407c8e, 0
24924, 85011, 5cb41dc49980, 407c96, 0
24931, 85029, c3e40f9b8640, 407cb3, 0
24930, 85228, c3e40f9b9640, 407cae, 0
25014, 85378, c3e40f9b9680, 407cae, 0
25015, 85391, c3e40f9b8680, 407cb3, 0
25206, 85674, c3e40f9b96c0, 407cae, 0
25207, 85680, c3e40f9b86c0, 407cb3, 0
25404, 85930, 5cb41dc46980, 407cf3, 0
25534, 86094, c3e40f9b3180, 421ee8, 0
25551, 86328, c3e40f9a5900, 422000, 0
25617, 86336, c3e40f9a5940, 422003, 0
25567, 86553, c3e40f98fb40, 42200b, 0
25583, 86572, c3e40f9918c0, 422017, 0
25596, 86573, c3e40f98d800, 422017, 0
25635, 86579, c3e40f98e9c0, 422017, 0
25568, 86786, 5cb41dc5ee00, 42200f, 0
25570, 87010, 5cb41dc5b5c0, 422017, 0
25764, 87390, c3e40f9b6100, 407c86, 0
25774, 87398, c3e40f9b9940, 407cae, 0
25822, 87410, c3e40f9b9980, 407cae, 0
25775, 87623, c3e40f9b8940, 407cb3, 0
25823, 87625, c3e40f9b8980, 407cb3, 0
26014, 87779, c3e40f9b99c0, 407cae, 0
26015, 87785, c3e40f9b89c0, 407cb3, 0
26206, 88107, c3e40f9b9a00, 407cae, 0
26207, 88115, c3e40f9b8a00, 407cb3, 0
26267, 88139, c3e40f9b7140, 407c8e, 0
26276, 88148, c3e40f9b8a80, 407cb3, 0
26275, 88263, c3e40f9b9a80, 407cae, 0
26347, 88388, c3e40f9b9ac0, 407cae, 0
26348, 88395, c3e40f9b8ac0, 407cb3, 0
26539, 88712, c3e40f9b9b00, 407cae, 0
26540, 88720, c3e40f9b8b00, 407cb3, 0
26731, 88908, c3e40f9b9b40, 407cae, 0
26732, 88912, c3e40f9b8b40, 407cb3, 0
26772, 89130, c3e40f9b6140, 407c86, 0
26782, 89139, c3e40f9b9bc0, 407cae, 0
26763, 89142, c3e40f9a1280, 41bd26, 0
26878, 89167, c3e40f9b9c00, 407cae, 0
26783, 89263, c3e40f9b8bc0, 407cb3, 0
26879, 89267, c3e40f9b8c00, 407cb3, 0
27070, 89431, c3e40f9b9c40, 407cae, 0
27071, 89439, c3e40f9b8c40, 407cb3, 0
27256, 89699, 5cb41dc469c0, 407cf3, 0
27358, 90035, c3e40f9a0080, 402660, 0
27438, 90108, 5cb41dc43bc0, 402350, 0
27454, 90117, c3e40f9b3280, 421ee8, 0
27471, 90351, c3e40f9a5a80, 422000, 0
27537, 90360, c3e40f9a5ac0, 422003, 0
27474, 90575, 5cb41dc59600, 42200b, 0
27513, 90577, c3e40f98fd80, 42200b, 0
27488, 90585, 5cb41dc5ad00, 42200f, 0
27539, 90586, 5cb41dc59dc0, 42200b, 0
27565, 90587, 5cb41dc59c00, 42200b, 0
27527, 90595, 5cb41dc5eac0, 42200f, 0
27475, 90799, c3e40f990000, 42200f, 0
27516, 90816, c3e40f98ee00, 422017, 0
27529, 90831, c3e40f98ea40, 422017, 0
27542, 90832, c3e40f98d3c0, 422017, 0
27568, 90858, c3e40f98ed00, 422017, 0
27477, 91023, c3e40f991b00, 422017, 0
27675, 91331, 5cb41dc43c00, 407c78, 0
27678, 91557, c3e40f9b6240, 407c86, 0
27680, 91558, c3e40f9b7240, 407c8e, 0
27682, 91565, 5cb41dc49a00, 407c96, 0
27689, 91988, c3e40f9baf40, 407cb3, 0
27785, 91998, c3e40f9baf80, 407cb3, 0
27688, 92005, c3e40f9bbf40, 407cae, 0
27784, 92009, c3e40f9bbf80, 407cae, 0
27976, 92320, c3e40f9bbfc0, 407cae, 0
27977, 92326, c3e40f9bafc0, 407cb3, 0
28162, 92660, 5cb41dc46a40, 407cf3, 0
28322, 92936, 5cb41dc43c40, 402350, 0
28337, 92945, 5cb41dc55440, 421ee4, 0
28338, 93211, c3e40f9b3340, 421ee8, 0
28355, 93345, c3e40f9a5b80, 422000, 0
28386, 93349, c3e40f9a5bc0, 422013, 0
28358, 93569, 5cb41dc59580, 42200b, 0
28372, 93578, c3e40f990c40, 42200f, 0
28410, 93580, 5cb41dc5cf00, 42200b, 0
28436, 93581, 5cb41dc5d940, 42200b, 0
28398, 93588, 5cb41dc5a480, 42200f, 0
28387, 93589, c3e40f98ebc0, 422017, 0
28361, 93801, c3e40f98d840, 422017, 0
28411, 93810, c3e40f990580, 42200f, 0
28400, 93826, c3e40f991340, 422017, 0
28439, 93835, c3e40f98d780, 422017, 0
28566, 94287, 5cb41dc43c80, 407c8a, 0
28565, 94295, c3e40f9b62c0, 407c86, 0
28567, 94512, c3e40f9b72c0, 407c8e, 0
28569, 94520, 5cb41dc49a80, 407c96, 0
28576, 94736, c3e40f9bcb80, 407cb3, 0
28575, 94753, c3e40f9bdb80, 407cae, 0
28719, 95015, c3e40f9bdbc0, 407cae, 0
28720, 95021, c3e40f9bcbc0, 407cb3, 0
28911, 95340, c3e40f9bdc00, 407cae, 0
28912, 95354, c3e40f9bcc00, 407cb3, 0
29068, 95646, c3e40f9b7300, 407c8e, 0
29049, 95648, 5cb41dc46a80, 407cf3, 0
29077, 95656, c3e40f9bccc0, 407cb3, 0
29076, 95873, c3e40f9bdcc0, 407cae, 0
29244, 96044, c3e40f9bdd00, 407cae, 0
29245, 96057, c3e40f9bcd00, 407cb3, 0
29436, 96240, c3e40f9bdd40, 407cae, 0
29437, 96246, c3e40f9bcd40, 407cb3, 0
29564, 96582, c3e40f995d40, 41bd26, 0
29716, 96959, 5cb41dc43cc0, 402350, 0
29732, 97121, c3e40f9b3400, 421ee8, 0
29749, 97255, c3e40f9a5cc0, 422000, 0
29815, 97263, c3e40f9a5d00, 422003, 0
29753, 97489, c3e40f990180, 42200f, 0
29779, 97491, 5cb41dc5ab80, 42200f, 0
29844, 97499, 5cb41dc5af00, 42200f, 0
29846, 97723, c3e40f9912c0, 422017, 0
29959, 98072, 5cb41dc43d00, 407c92, 0
29956, 98079, c3e40f9b6380, 407c86, 0
29958, 98080, c3e40f9b7380, 407c8e, 0
29960, 98305, 5cb41dc49ac0, 407c96, 0
29967, 98521, c3e40f9beac0, 407cb3, 0
29966, 98538, c3e40f9bfac0, 407cae, 0
30122, 98805, c3e40f9bfb00, 407cae, 0
30123, 98814, c3e40f9beb00, 407cb3, 0
30314, 99132, c3e40f9bfb40, 407cae, 0
30315, 99147, c3e40f9beb40, 407cb3, 0
30440, 99438, 5cb41dc46ac0, 407cf3, 0
30646, 99935, 5cb41dc43d80, 402350, 0
30661, 99937, 5cb41dc55480, 421ee4, 0
30662, 100167, c3e40f9b3540, 421ee8, 0
30679, 100301, c3e40f9a5e80, 422000, 0
30710, 100305, c3e40f9a5ec0, 422013, 0
30682, 100525, 5cb41dc5d540, 42200b, 0
30695, 100526, 5cb41dc5de80, 42200b, 0
30734, 100534, 5cb41dc5c5c0, 42200b, 0
30747, 100536, 5cb41dc594c0, 42200b, 0
30722, 100545, 5cb41dc5e600, 42200f, 0
30761, 100558, 5cb41dc59100, 42200f, 0
30711, 100567, c3e40f98da40, 422017, 0
30776, 100568, c3e40f991900, 422017, 0
30683, 100749, 5cb41dc5a300, 42200f, 0
30696, 100757, 5cb41dc5a140, 42200f, 0
30724, 100781, c3e40f98e7c0, 422017, 0
30887, 101208, 5cb41dc43dc0, 407c8a, 0
30886, 101216, c3e40f9b64c0, 407c86, 0
30888, 101433, c3e40f9b74c0, 407c8e, 0
30890, 101441, 5cb41dc49b80, 407c96, 0
30897, 101657, c3e40f9c0280, 407cb3, 0
30896, 101674, c3e40f9c1280, 407cae, 0
31040, 101966, c3e40f9c12c0, 407cae, 0
31041, 101979, c3e40f9c02c0, 407cb3, 0
31232, 102262, c3e40f9c1300, 407cae, 0
31233, 102268, c3e40f9c0300, 407cb3, 0
31370, 102603, 5cb41dc46b80, 407cf3, 0
31496, 102654, c3e40f9a00c0, 402660, 0
31686, 103013, 5cb41dc51640, 40290b, 0
31806, 103399, c3e40f9c2000, 402350, 0
31821, 103400, 5cb41dc55500, 421ee4, 0
31822, 103631, c3e40f9b3900, 421ee8, 0
31839, 103964, c3e40f9c3440, 422000, 0
31905, 103972, c3e40f9c3480, 422003, 0
31907, 104096, c3e40f98f740, 42200b, 0
31920, 104097, 5cb41dc5da00, 42200b, 0
31933, 104098, 5cb41dc59800, 42200b, 0
31842, 104188, 5cb41dc5d0c0, 42200b, 0
31894, 104190, 5cb41dc5b180, 42200b, 0
31882, 104198, 5cb41dc5a100, 42200f, 0
31858, 104220, c3e40f98dd40, 422017, 0
31908, 104320, c3e40f990800, 42200f, 0
31921, 104328, c3e40f990900, 42200f, 0
31895, 104421, c3e40f98bb80, 42200f, 0
31884, 104428, c3e40f98d240, 422017, 0
31910, 104544, c3e40f98d440, 422017, 0
32046, 104833, c3e40f9b68c0, 407c86, 0
32048, 104834, c3e40f9b78c0, 407c8e, 0
32050, 104841, 5cb41dc49d40, 407c96, 0
32057, 105264, c3e40f9c4e00, 407cb3, 0
32153, 105274, c3e40f9c4e40, 407cb3, 0
32056, 105281, c3e40f9c5e00, 407cae, 0
32152, 105285, c3e40f9c5e40, 407cae, 0
32344, 105582, c3e40f9c5e80, 407cae, 0
32345, 105590, c3e40f9c4e80, 407cb3, 0
32530, 105828, 5cb41dc46d80, 407cf3, 0
32679, 106065, c3e40f9a0100, 402660, 0
33047, 106535, c3e40f9a0140, 402660, 0
33150, 106819, c3e40f9c2380, 402350, 0
33165, 106828, 5cb41dc555c0, 421ee4, 0
33166, 107052, c3e40f9b3ec0, 421ee8, 0
33183, 107186, c3e40f9c3cc0, 422000, 0
33214, 107190, c3e40f9c3d00, 422013, 0
33199, 107410, 5cb41dc5cb40, 42200b, 0
33212, 107411, 5cb41dc5b280, 42200b, 0
33238, 107420, 5cb41dc5ccc0, 42200b, 0
33251, 107421, 5cb41dc5ca40, 42200b, 0
33277, 107422, 5cb41dc5c380, 42200b, 0
33189, 107427, 5cb41dc5bd40, 422017, 0
33226, 107428, c3e40f98b340, 42200f, 0
33265, 107429, 5cb41dc5a0c0, 42200f, 0
33200, 107634, c3e40f98bc40, 42200f, 0
33215, 107650, c3e40f98df80, 422017, 0
33241, 107658, c3e40f98e540, 422017, 0
33280, 107698, 5cb41dc5b940, 422017, 0
33267, 107701, 5cb41dc5bd00, 422017, 0
33390, 108228, c3e40f9b6e40, 407c86, 0
33392, 108229, c3e40f9b7e80, 407c8e, 0
33394, 108246, c3e40f9c6040, 407c96, 0
33401, 108660, c3e40f9c7d80, 407cb3, 0
33400, 108662, c3e40f9c8d80, 407cae, 0
33484, 108957, c3e40f9c8dc0, 407cae, 0
33485, 108972, c3e40f9c7dc0, 407cb3, 0
33676, 109253, c3e40f9c8e00, 407cae, 0
33677, 109259, c3e40f9c7e00, 407cb3, 0
33868, 109467, c3e40f9c23c0, 407cdc, 0
33874, 109701, c3e40f9c9040, 407cf3, 0
34052, 109855, 5cb41dc51680, 40290b, 0
34230, 110131, c3e40f9a0180, 402660, 0
34471, 110579, c3e40f9c2700, 402350, 0
34486, 110588, 5cb41dc55640, 421ee4, 0
34487, 110921, c3e40f9ca440, 421ee8, 0
34504, 111256, c3e40f9cb500, 422000, 0
34535, 111260, c3e40f9cb540, 422013, 0
34507, 111380, 5cb41dc5d5c0, 42200b, 0
34520, 111381, 5cb41dc5d140, 42200b, 0
34534, 111398, 5cb41dc5e500, 42200f, 0
34546, 111484, 5cb41dc5c7c0, 42200b, 0
34559, 111485, 5cb41dc5d2c0, 42200b, 0
34598, 111486, 5cb41dc59640, 42200b, 0
34508, 111604, 5cb41dc5e840, 42200f, 0
34562, 111636, c3e40f991a00, 422017, 0
34523, 111643, 5cb41dc5bc00, 422017, 0
34547, 111655, 5cb41dc59300, 42200f, 0
34549, 111779, 5cb41dc5bf40, 422017, 0
34718, 112236, c3e40f9c6300, 407c96, 0
34714, 112353, c3e40f9cc3c0, 407c86, 0
34716, 112354, c3e40f9cd400, 407c8e, 0
34725, 112787, c3e40f9ce840, 407cb3, 0
34724, 112792, c3e40f9cf840, 407cae, 0
34892, 113105, c3e40f9cf880, 407cae, 0
34893, 113120, c3e40f9ce880, 407cb3, 0
35084, 113401, c3e40f9cf8c0, 407cae, 0
35085, 113407, c3e40f9ce8c0, 407cb3, 0
35198, 113697, c3e40f9c9300, 407cf3, 0
35309, 113877, c3e40f9cf900, 407cae, 0
35310, 113881, c3e40f9ce900, 407cb3, 0
35501, 114073, c3e40f9cf940, 407cae, 0
35502, 114079, c3e40f9ce940, 407cb3, 0
35713, 114461, c3e40f994380, 41bd26, 0
35957, 115046, c3e40f9c2800, 402350, 0
35972, 115065, 5cb41dc55680, 421ee4, 0
35973, 115289, c3e40f9ca600, 421ee8, 0
35990, 115423, c3e40f9cb7c0, 422000, 0
36056, 115431, c3e40f9cb800, 422003, 0
36072, 115563, c3e40f98b580, 42200f, 0
35993, 115648, c3e40f98f500, 42200b, 0
36045, 115650, c3e40f98f100, 42200b, 0
36059, 115651, c3e40f98be00, 42200f, 0
36007, 115656, c3e40f98bf80, 42200f, 0
36033, 115657, c3e40f98b900, 42200f, 0
36022, 115674, c3e40f98ea00, 422017, 0
36074, 115796, c3e40f991980, 422017, 0
36046, 115923, 5cb41dc5a1c0, 42200f, 0
36048, 116147, c3e40f9913c0, 422017, 0
36203, 116486, c3e40f9c2840, 407c92, 0
36202, 116493, c3e40f9cd580, 407c8e, 0
36200, 116502, c3e40f9cc580, 407c86, 0
36204, 116610, c3e40f9c63c0, 407c96, 0
36210, 116924, c3e40f9d09c0, 407cae, 0
36211, 116941, c3e40f9d19c0, 407cb3, 0
36366, 117234, c3e40f9d0a00, 407cae, 0
36367, 117244, c3e40f9d1a00, 407cb3, 0
36558, 117530, c3e40f9d0a40, 407cae, 0
36559, 117536, c3e40f9d1a40, 407cb3, 0
36701, 117844, c3e40f9cc5c0, 407c86, 0
36703, 117845, c3e40f9cd5c0, 407c8e, 0
36684, 117868, c3e40f9c93c0, 407cf3, 0
36712, 118070, c3e40f9d1c00, 407cb3, 0
36724, 118071, c3e40f9d1c40, 407cb3, 0
36711, 118121, c3e40f9d0c00, 407cae, 0
36723, 118122, c3e40f9d0c40, 407cae, 0
36915, 118271, c3e40f9d0c80, 407cae, 0
36916, 118278, c3e40f9d1c80, 407cb3, 0
37107, 118596, c3e40f9d0cc0, 407cae, 0
37108, 118605, c3e40f9d1cc0, 407cb3, 0
37185, 118889, c3e40f9c9400, 407cf3, 0
37200, 119271, c3e40f9d2440, 41bd26, 0
37249, 119336, c3e40f9a01c0, 402660, 0
37439, 119610, 5cb41dc516c0, 40290b, 0
37617, 119847, c3e40f9a0200, 402660, 0
37789, 120160, c3e40f9c2b80, 402350, 0
37804, 120178, 5cb41dc55740, 421ee4, 0
37805, 120402, c3e40f9cab80, 421ee8, 0
37822, 120635, c3e40f9d3000, 422000, 0
37888, 120643, c3e40f9d3040, 422003, 0
37903, 120768, c3e40f98fc00, 42200b, 0
37891, 120862, c3e40f98b280, 42200f, 0
37826, 120868, 5cb41dc59080, 42200f, 0
37839, 120869, c3e40f98bf40, 42200f, 0
37852, 120870, 5cb41dc5a700, 42200f, 0
37906, 121018, c3e40f98d640, 422017, 0
38031, 121427, c3e40f9cdb00, 407c8e, 0
38033, 121428, c3e40f9c6680, 407c96, 0
38029, 121432, c3e40f9ccb00, 407c86, 0
38039, 121858, c3e40f9d4500, 407cae, 0
38040, 121875, c3e40f9d5500, 407cb3, 0
38195, 122144, c3e40f9d4540, 407cae, 0
38196, 122153, c3e40f9d5540, 407cb3, 0
38387, 122474, c3e40f9d4580, 407cae, 0
38388, 122488, c3e40f9d5580, 407cb3, 0
38513, 122771, c3e40f9c9680, 407cf3, 0
38800, 123370, c3e40f9a0240, 402660, 0
38989, 123780, 5cb41dc51700, 402674, 0
39041, 123800, c3e40f9c2e80, 402350, 0
39056, 123809, 5cb41dc557c0, 421ee4, 0
38997, 124013, 5cb41dc53e40, 402699, 0
39057, 124142, c3e40f9d7040, 421ee8, 0
39074, 124401, c3e40f9d3700, 422000, 0
39105, 124405, c3e40f9d3740, 422013, 0
39129, 124530, 5cb41dc5c0c0, 42200b, 0
39142, 124531, 5cb41dc5d880, 42200b, 0
39169, 124539, 5cb41dc5a840, 42200f, 0
39156, 124548, 5cb41dc5ef00, 42200f, 0
39077, 124625, 5cb41dc5cb80, 42200b, 0
39103, 124627, 5cb41dc5df40, 42200b, 0
39132, 124662, 5cb41dc5b980, 422017, 0
39158, 124776, c3e40f98db00, 422017, 0
39078, 124849, c3e40f990cc0, 42200f, 0
39080, 125073, c3e40f991ec0, 422017, 0
39281, 125307, c3e40f9ccfc0, 407c86, 0
39285, 125407, c3e40f9c6900, 407c96, 0
39283, 125424, c3e40f9d8000, 407c8e, 0
39292, 125640, c3e40f9d9240, 407cb3, 0
39291, 125757, c3e40f9da240, 407cae, 0
39459, 125960, c3e40f9da280, 407cae, 0
39460, 125973, c3e40f9d9280, 407cb3, 0
39651, 126256, c3e40f9da2c0, 407cae, 0
39652, 126262, c3e40f9d92c0, 407cb3, 0
39765, 126552, c3e40f9c9900, 407cf3, 0
39994, 126935, c3e40f9c2f80, 402350, 0
40009, 126944, 5cb41dc55800, 421ee4, 0
40010, 127168, c3e40f9d71c0, 421ee8, 0
40027, 127402, c3e40f9d3940, 422000, 0
40058, 127406, c3e40f9d3980, 422013, 0
40043, 127627, 5cb41dc5cfc0, 42200b, 0
40056, 127628, 5cb41dc5c300, 42200b, 0
40095, 127635, c3e40f98fe00, 42200b, 0
40121, 127636, 5cb41dc5d400, 42200b, 0
40109, 127644, c3e40f98bd00, 42200f, 0
40085, 127651, c3e40f991f00, 422017, 0
40033, 127657, c3e40f98ed80, 422017, 0
40072, 127665, c3e40f98e140, 422017, 0
40044, 127851, c3e40f9900c0, 42200f, 0
40096, 127869, 5cb41dc5ec80, 42200f, 0
40059, 127891, 5cb41dc5b3c0, 422017, 0
40236, 128364, c3e40f9d8180, 407c8e, 0
40238, 128365, c3e40f9c69c0, 407c96, 0
40234, 128382, c3e40f9db180, 407c86, 0
40244, 128795, c3e40f9dc280, 407cae, 0
40245, 128812, c3e40f9dd280, 407cb3, 0
40376, 129070, c3e40f9dc2c0, 407cae, 0
40377, 129078, c3e40f9dd2c0, 407cb3, 0
40568, 129392, c3e40f9dc300, 407cae, 0
40569, 129403, c3e40f9dd300, 407cb3, 0
40718, 129696, c3e40f9c99c0, 407cf3, 0
40798, 129763, c3e40f9a0280, 402660, 0
41166, 130148, c3e40f9a02c0, 402660, 0
41246, 130667, c3e40f9de240, 402350, 0
41261, 130668, 5cb41dc55880, 421ee4, 0
41262, 130901, c3e40f9d7680, 421ee8, 0
41279, 131234, c3e40f9df080, 422000, 0
41345, 131242, c3e40f9df0c0, 422003, 0
41322, 131376, 5cb41dc5ae80, 42200f, 0
41311, 131392, c3e40f98e740, 422017, 0
41285, 131398, 5cb41dc5b400, 422017, 0
41347, 131466, 5cb41dc5cec0, 42200b, 0
41360, 131467, 5cb41dc5c180, 42200b, 0
41374, 131475, 5cb41dc5e940, 42200f, 0
41348, 131690, 5cb41dc5ee40, 42200f, 0
41363, 131706, c3e40f9910c0, 422017, 0
41483, 132027, c3e40f9de280, 407c78, 0
41486, 132252, c3e40f9db640, 407c86, 0
41488, 132253, c3e40f9d8640, 407c8e, 0
41490, 132254, c3e40f9c6c00, 407c96, 0
41497, 132683, c3e40f9e0dc0, 407cb3, 0
41509, 132684, c3e40f9e0e00, 407cb3, 0
41496, 132700, c3e40f9e1dc0, 407cae, 0
41508, 132701, c3e40f9e1e00, 407cae, 0
41700, 133015, c3e40f9e1e40, 407cae, 0
41701, 133024, c3e40f9e0e40, 407cb3, 0
41892, 133345, c3e40f9e1e80, 407cae, 0
41893, 133355, c3e40f9e0e80, 407cb3, 0
41970, 133640, c3e40f9c9c40, 407cf3, 0
42171, 133896, 5cb41dc51740, 40290b, 0
42349, 134067, c3e40f9a0300, 402660, 0
42475, 134347, c3e40f9de540, 402350, 0
42490, 134356, 5cb41dc55940, 421ee4, 0
42491, 134722, c3e40f9d7b00, 421ee8, 0
42508, 134954, c3e40f9df740, 422000, 0
42574, 134962, c3e40f9df780, 422003, 0
42563, 135181, c3e40f98ff80, 42200b, 0
42589, 135188, c3e40f98fac0, 42200b, 0
42538, 135197, 5cb41dc5e680, 42200f, 0
42553, 135226, c3e40f991840, 422017, 0
42605, 135516, c3e40f991e00, 422017, 0
42715, 135822, c3e40f9dba80, 407c86, 0
42717, 135830, c3e40f9d8a80, 407c8e, 0
42719, 135831, c3e40f9c6e40, 407c96, 0
42726, 136253, c3e40f9e2340, 407cb3, 0
42725, 136270, c3e40f9e3340, 407cae, 0
42881, 136537, c3e40f9e3380, 407cae, 0
42882, 136546, c3e40f9e2380, 407cb3, 0
43073, 136852, c3e40f9e33c0, 407cae, 0
43074, 136861, c3e40f9e23c0, 407cb3, 0
43199, 137049, c3e40f9c9e40, 407cf3, 0
43329, 137251, c3e40f9d7b40, 421ee8, 0
43377, 137489, c3e40f9df7c0, 422013, 0
43362, 137500, 5cb41dc5b0c0, 42200b, 0
43350, 137506, 5cb41dc5a800, 42200f, 0
43378, 137714, c3e40f98c100, 422017, 0
43401, 137715, 5cb41dc5d3c0, 42200b, 0
43391, 137731, 5cb41dc5b880, 422017, 0
43352, 137732, 5cb41dc5bb00, 422017, 0
43443, 137733, c3e40f991540, 422017, 0
43428, 137739, c3e40f98b9c0, 42200f, 0
43404, 137954, c3e40f98d000, 422017, 0
43430, 138097, c3e40f991f80, 422017, 0
43554, 138412, c3e40f9de580, 407c8a, 0
43553, 138420, c3e40f9dbac0, 407c86, 0
43555, 138637, c3e40f9d8b00, 407c8e, 0
43557, 138638, c3e40f9c6e80, 407c96, 0
43564, 138655, c3e40f9e2940, 407cb3, 0
43563, 138863, c3e40f9e3940, 407cae, 0
43647, 138866, c3e40f9e3980, 407cae, 0
43648, 139098, c3e40f9e2980, 407cb3, 0
43839, 139243, c3e40f9e39c0, 407cae, 0
43840, 139249, c3e40f9e29c0, 407cb3, 0
44037, 139590, c3e40f9c9e80, 407cf3, 0
44174, 139748, c3e40f9de5c0, 402350, 0
44190, 139765, c3e40f9d7bc0, 421ee8, 0
44207, 140033, c3e40f9df840, 422000, 0
44238, 140037, c3e40f9df880, 422013, 0
44210, 140257, c3e40f98fcc0, 42200b, 0
44223, 140258, c3e40f98f700, 42200b, 0
44249, 140266, 5cb41dc5b1c0, 42200b, 0
44262, 140267, 5cb41dc5c440, 42200b, 0
44289, 140284, 5cb41dc5e800, 42200f, 0
44211, 140481, c3e40f990840, 42200f, 0
44226, 140497, 5cb41dc5b7c0, 422017, 0
44414, 140813, c3e40f9dbb40, 407c86, 0
44416, 140814, c3e40f9d8b40, 407c8e, 0
44418, 140815, c3e40f9c6ec0, 407c96, 0
44425, 141144, c3e40f9e41c0, 407cb3, 0
44485, 141145, c3e40f9e4200, 407cb3, 0
44424, 141161, c3e40f9e51c0, 407cae, 0
44484, 141163, c3e40f9e5200, 407cae, 0
44676, 141452, c3e40f9e5240, 407cae, 0
44677, 141457, c3e40f9e4240, 407cb3, 0
44868, 141778, c3e40f9e5280, 407cae, 0
44869, 141786, c3e40f9e4280, 407cb3, 0
44898, 142067, c3e40f9c9ec0, 407cf3, 0
45028, 142200, c3e40f9d7c00, 421ee8, 0
45045, 142424, c3e40f9df8c0, 422000, 0
45049, 142656, c3e40f98bc00, 42200f, 0
45051, 142880, c3e40f98e680, 422017, 0
45111, 143124, c3e40f9df900, 422003, 0
45088, 143137, c3e40f98b5c0, 42200f, 0
45139, 143349, 5cb41dc5d680, 42200b, 0
45116, 143364, c3e40f98c0c0, 422017, 0
45255, 143622, c3e40f9de600, 407c92, 0
45252, 143629, c3e40f9dbb80, 407c86, 0
45254, 143630, c3e40f9d8bc0, 407c8e, 0
45262, 143871, c3e40f9e5800, 407cae, 0
45263, 143877, c3e40f9e4800, 407cb3, 0
45442, 144197, c3e40f9e5840, 407cae, 0
45443, 144210, c3e40f9e4840, 407cb3, 0
45634, 144393, c3e40f9e5880, 407cae, 0
45635, 144399, c3e40f9e4880, 407cb3, 0
45889, 144852, c3e40f9d7c80, 421ee8, 0
45906, 145086, c3e40f9df980, 422000, 0
45972, 145094, c3e40f9df9c0, 422003, 0
45909, 145210, 5cb41dc5d040, 42200b, 0
46000, 145220, 5cb41dc5c1c0, 42200b, 0
45987, 145221, c3e40f98f5c0, 42200b, 0
45936, 145222, c3e40f990040, 42200f, 0
45975, 145228, c3e40f990d80, 42200f, 0
45988, 145595, 5cb41dc5a440, 42200f, 0
46110, 145906, c3e40f9de640, 407c78, 0
46113, 146130, c3e40f9dbc40, 407c86, 0
46115, 146139, c3e40f9d8c40, 407c8e, 0
46117, 146140, c3e40f9c6f00, 407c96, 0
46124, 146461, c3e40f9e6400, 407cb3, 0
46160, 146462, c3e40f9e6440, 407cb3, 0
46123, 146478, c3e40f9e7400, 407cae, 0
46159, 146479, c3e40f9e7440, 407cae, 0
46351, 146753, c3e40f9e7480, 407cae, 0
46352, 146761, c3e40f9e6480, 407cb3, 0
46543, 147077, c3e40f9e74c0, 407cae, 0
46544, 147085, c3e40f9e64c0, 407cb3, 0
46597, 147370, c3e40f9c9f40, 407cf3, 0
46792, 147618, c3e40f9a0340, 402660, 0
46918, 147917, c3e40f9de7c0, 402350, 0
46933, 147926, 5cb41dc559c0, 421ee4, 0
46934, 148292, c3e40f9d7f00, 421ee8, 0
46951, 148526, c3e40f9dfd40, 422000, 0
47017, 148534, c3e40f9dfd80, 422003, 0
46967, 148751, 5cb41dc59440, 42200b, 0
47006, 148752, c3e40f98f480, 42200b, 0
46955, 148759, c3e40f990540, 42200f, 0
47032, 148760, 5cb41dc5db00, 42200b, 0
47045, 148761, 5cb41dc5d4c0, 42200b, 0
47046, 149007, 5cb41dc5e8c0, 42200f, 0
47048, 149131, c3e40f991740, 422017, 0
47158, 149437, c3e40f9dbec0, 407c86, 0
47160, 149438, c3e40f9d8ec0, 407c8e, 0
47162, 149454, c3e40f9e8040, 407c96, 0
47168, 149925, c3e40f9e9440, 407cae, 0
47288, 149935, c3e40f9e9480, 407cae, 0
47169, 149936, c3e40f9ea440, 407cb3, 0
47289, 149940, c3e40f9ea480, 407cb3, 0
47480, 150231, c3e40f9e94c0, 407cae, 0
47481, 150237, c3e40f9ea4c0, 407cb3, 0
47642, 150674, c3e40f9eb080, 407cf3, 0
47779, 150831, c3e40f9de800, 402350, 0
47795, 150848, c3e40f9d7f80, 421ee8, 0
47812, 150977, c3e40f9dfe00, 422000, 0
47829, 151115, c3e40f990b00, 42200f, 0
47868, 151116, c3e40f98be40, 42200f, 0
47831, 151339, c3e40f98d680, 422017, 0
47878, 151578, c3e40f9dfe40, 422003, 0
47906, 151802, c3e40f98fa00, 42200b, 0
47893, 151803, 5cb41dc5ca80, 42200b, 0
48019, 152134, c3e40f9dbf00, 407c86, 0
48021, 152142, c3e40f9d8f00, 407c8e, 0
48023, 152143, c3e40f9e8080, 407c96, 0
48030, 152361, c3e40f9eab00, 407cb3, 0
48029, 152412, c3e40f9e9b00, 407cae, 0
48185, 152645, c3e40f9e9b40, 407cae, 0
48186, 152653, c3e40f9eab40, 407cb3, 0
48377, 152969, c3e40f9e9b80, 407cae, 0
48378, 152972, c3e40f9eab80, 407cb3, 0
48611, 153586, 5cb41dc51780, 402674, 0
48663, 153606, c3e40f9de880, 402350, 0
48679, 153732, c3e40f9ec040, 421ee8, 0
48696, 153966, c3e40f9dff00, 422000, 0
48727, 153970, c3e40f9dff40, 422013, 0
48778, 154213, c3e40f990fc0, 42200f, 0
48741, 154233, c3e40f98e2c0, 422017, 0
48903, 154541, c3e40f9dbfc0, 407c86, 0
48907, 154641, c3e40f9e8100, 407c96, 0
48905, 154658, c3e40f9ed000, 407c8e, 0
48914, 154874, c3e40f9eeac0, 407cb3, 0
48913, 154991, c3e40f9efac0, 407cae, 0
48997, 155167, c3e40f9efb00, 407cae, 0
48998, 155181, c3e40f9eeb00, 407cb3, 0
49189, 155363, c3e40f9efb40, 407cae, 0
49190, 155369, c3e40f9eeb40, 407cb3, 0
49387, 155708, c3e40f9eb100, 407cf3, 0
49524, 155867, c3e40f9de8c0, 402350, 0
49539, 155876, 5cb41dc55a00, 421ee4, 0
49540, 156100, c3e40f9ec0c0, 421ee8, 0
49557, 156430, c3e40f9dffc0, 422000, 0
49588, 156437, c3e40f9f0000, 422013, 0
49560, 156554, c3e40f98f6c0, 42200b, 0
49573, 156555, c3e40f98f000, 42200b, 0
49586, 156556, c3e40f98f980, 42200b, 0
49613, 156670, 5cb41dc5a000, 42200f, 0
49615, 156963, c3e40f991180, 422017, 0
49639, 157225, 5cb41dc5e7c0, 42200f, 0
49766, 157651, c3e40f9ed040, 407c8e, 0
49768, 157652, c3e40f9e8140, 407c96, 0
49764, 157653, c3e40f9f1040, 407c86, 0
49774, 157884, c3e40f9f22c0, 407cae, 0
49775, 158035, c3e40f9f32c0, 407cb3, 0
49918, 158170, c3e40f9f2300, 407cae, 0
49919, 158177, c3e40f9f3300, 407cb3, 0
50110, 158486, c3e40f9f2340, 407cae, 0
50111, 158495, c3e40f9f3340, 407cb3, 0
50242, 158761, c3e40f9de900, 407cdc, 0
50248, 158985, c3e40f9eb140, 407cf3, 0
50408, 159289, c3e40f9de940, 402350, 0
50424, 159306, c3e40f9ec180, 421ee8, 0
50441, 159540, c3e40f9f0100, 422000, 0
50507, 159548, c3e40f9f0140, 422003, 0
50470, 159766, 5cb41dc5c700, 42200b, 0
50445, 159773, c3e40f990980, 42200f, 0
50497, 159776, c3e40f98b7c0, 42200f, 0
50525, 159792, 5cb41dc5b840, 422017, 0
50512, 159799, c3e40f98c140, 422017, 0
50447, 159998, c3e40f98ea80, 422017, 0
50473, 159999, c3e40f98ec00, 422017, 0
50648, 160325, c3e40f9f1100, 407c86, 0
50650, 160333, c3e40f9ed100, 407c8e, 0
50652, 160334, c3e40f9e8180, 407c96, 0
50659, 160658, c3e40f9f4140, 407cb3, 0
50658, 160809, c3e40f9f5140, 407cae, 0
50706, 160951, c3e40f9f5180, 407cae, 0
50707, 160964, c3e40f9f4180, 407cb3, 0
50898, 161247, c3e40f9f51c0, 407cae, 0
50899, 161253, c3e40f9f41c0, 407cb3, 0
51090, 161574, c3e40f9f5200, 407cae, 0
51091, 161583, c3e40f9f4200, 407cb3, 0
51235, 161856, c3e40f9a0380, 402660, 0
51132, 161864, c3e40f9eb180, 407cf3, 0
51603, 162421, c3e40f9a03c0, 402660, 0
51706, 162829, c3e40f9dec80, 402350, 0
51721, 162838, 5cb41dc55ac0, 421ee4, 0
51722, 163062, c3e40f9ec6c0, 421ee8, 0
51739, 163286, c3e40f9f08c0, 422000, 0
51742, 163510, 5cb41dc5c740, 42200b, 0
51743, 163734, c3e40f990b40, 42200f, 0
51770, 163970, c3e40f9f0900, 422013, 0
51745, 163979, c3e40f98c280, 422017, 0
51755, 163980, c3e40f98f7c0, 42200b, 0
51807, 164196, c3e40f98f280, 42200b, 0
51833, 164197, 5cb41dc595c0, 42200b, 0
51782, 164203, 5cb41dc59000, 42200f, 0
51797, 164227, c3e40f98e4c0, 422017, 0
51808, 164320, c3e40f990740, 42200f, 0
51836, 164429, c3e40f98d280, 422017, 0
51949, 164664, c3e40f9f1640, 407c86, 0
51951, 164665, c3e40f9ed640, 407c8e, 0
51953, 164666, c3e40f9e8440, 407c96, 0
51960, 164997, c3e40f9f6840, 407cb3, 0
52020, 164999, c3e40f9f6880, 407cb3, 0
51959, 165148, c3e40f9f7840, 407cae, 0
52019, 165150, c3e40f9f7880, 407cae, 0
52211, 165348, c3e40f9f78c0, 407cae, 0
52212, 165357, c3e40f9f68c0, 407cb3, 0
52403, 165644, c3e40f9f7900, 407cae, 0
52427, 165648, c3e40f9decc0, 407cdc, 0
52404, 165649, c3e40f9f6900, 407cb3, 0
52433, 165872, c3e40f9eb440, 407cf3, 0
52450, 166107, c3e40f9f1680, 407c86, 0
52452, 166117, c3e40f9ed680, 407c8e, 0
52461, 166234, c3e40f9f6b40, 407cb3, 0
52485, 166235, c3e40f9f6b80, 407cb3, 0
52460, 166385, c3e40f9f7b40, 407cae, 0
52484, 166386, c3e40f9f7b80, 407cae, 0
52676, 166535, c3e40f9f7bc0, 407cae, 0
52677, 166542, c3e40f9f6bc0, 407cb3, 0
52868, 166860, c3e40f9f7c00, 407cae, 0
52869, 166869, c3e40f9f6c00, 407cb3, 0
52949, 167306, c3e40f9f8240, 41bd26, 0
53119, 167550, 5cb41dc517c0, 40290b, 0
53285, 167993, c3e40f9dee40, 402350, 0
53300, 168002, 5cb41dc55b00, 421ee4, 0
53301, 168226, c3e40f9ec980, 421ee8, 0
53318, 168460, c3e40f9f0d00, 422000, 0
53384, 168468, c3e40f9f0d40, 422003, 0
53399, 168592, 5cb41dc5ce40, 42200b, 0
53347, 168685, 5cb41dc5c9c0, 42200b, 0
53334, 168686, 5cb41dc5dd40, 42200b, 0
53324, 168701, c3e40f991600, 422017, 0
53389, 168703, c3e40f991d80, 422017, 0
53348, 168809, 5cb41dc5e5c0, 42200f, 0
53400, 168817, 5cb41dc5ef80, 42200f, 0
53335, 168910, c3e40f98b240, 42200f, 0
53525, 169311, c3e40f9f1940, 407c86, 0
53527, 169312, c3e40f9ed940, 407c8e, 0
53529, 169320, c3e40f9e8580, 407c96, 0
53536, 169644, c3e40f9f9180, 407cb3, 0
53572, 169645, c3e40f9f91c0, 407cb3, 0
53535, 169795, c3e40f9fa180, 407cae, 0
53571, 169796, c3e40f9fa1c0, 407cae, 0
53763, 169947, c3e40f9fa200, 407cae, 0
53764, 169956, c3e40f9f9200, 407cb3, 0
53955, 170268, c3e40f9fa240, 407cae, 0
53956, 170277, c3e40f9f9240, 407cb3, 0
54009, 170568, c3e40f9eb5c0, 407cf3, 0
54146, 170838, c3e40f9dee80, 402350, 0
54162, 170855, c3e40f9eca00, 421ee8, 0
54179, 171180, c3e40f9f0dc0, 422000, 0
54245, 171457, c3e40f9f0e00, 422003, 0
54235, 171472, c3e40f990a80, 42200f, 0
54389, 171733, c3e40f9deec0, 407c92, 0
54386, 171740, c3e40f9f19c0, 407c86, 0
54388, 171741, c3e40f9ed9c0, 407c8e, 0
54390, 171857, c3e40f9e85c0, 407c96, 0
54397, 171877, c3e40f9f9b40, 407cb3, 0
54433, 171878, c3e40f9f9b80, 407cb3, 0
54396, 172019, c3e40f9fab40, 407cae, 0
54432, 172021, c3e40f9fab80, 407cae, 0
54624, 172208, c3e40f9fabc0, 407cae, 0
54625, 172222, c3e40f9f9bc0, 407cb3, 0
54816, 172504, c3e40f9fac00, 407cae, 0
54817, 172513, c3e40f9f9c00, 407cb3, 0
54870, 172695, c3e40f9eb600, 407cf3, 0
54927, 172953, c3e40f9a0400, 402660, 0
55053, 173233, c3e40f9def40, 402350, 0
55068, 173242, 5cb41dc55b40, 421ee4, 0
55069, 173608, c3e40f9ecb00, 421ee8, 0
55086, 173842, c3e40f9f0f40, 422000, 0
55152, 173850, c3e40f9f0f80, 422003, 0
55154, 173974, c3e40f98f0c0, 42200b, 0
55170, 174021, 5cb41dc5b700, 422017, 0
55102, 174067, 5cb41dc5cd40, 42200b, 0
55141, 174068, 5cb41dc5db80, 42200b, 0
55131, 174098, 5cb41dc5bdc0, 422017, 0
55105, 174299, c3e40f98d0c0, 422017, 0
55293, 174550, c3e40f9f1a80, 407c86, 0
55295, 174551, c3e40f9edac0, 407c8e, 0
55297, 174552, c3e40f9e8640, 407c96, 0
55304, 174984, c3e40f9fbc80, 407cb3, 0
55303, 174989, c3e40f9fcc80, 407cae, 0
55483, 175172, c3e40f9fccc0, 407cae, 0
55484, 175178, c3e40f9fbcc0, 407cb3, 0
55675, 175500, c3e40f9fcd00, 407cae, 0
55676, 175510, c3e40f9fbd00, 407cb3, 0
55777, 175795, c3e40f9eb640, 407cf3, 0
55937, 175976, c3e40f9defc0, 402350, 0
55953, 175993, c3e40f9ecbc0, 421ee8, 0
55970, 176463, c3e40f9fd040, 422000, 0
56001, 176467, c3e40f9fd080, 422013, 0
56013, 176600, 5cb41dc5a4c0, 42200f, 0
55976, 176703, c3e40f98d380, 422017, 0
56015, 176824, c3e40f991d00, 422017, 0
56177, 177072, c3e40f9f1b40, 407c86, 0
56179, 177073, c3e40f9edb80, 407c8e, 0
56181, 177074, c3e40f9e86c0, 407c96, 0
56188, 177506, c3e40f9feb00, 407cb3, 0
56272, 177509, c3e40f9feb40, 407cb3, 0
56187, 177511, c3e40f9ffb00, 407cae, 0
56271, 177514, c3e40f9ffb40, 407cae, 0
56463, 177847, c3e40f9ffb80, 407cae, 0
56464, 177855, c3e40f9feb80, 407cb3, 0
56661, 178168, c3e40f9eb6c0, 407cf3, 0
56798, 178592, c3e40fa00000, 402350, 0
56814, 178600, c3e40f9ecc40, 421ee8, 0
56831, 178834, c3e40f9fd100, 422000, 0
56862, 178838, c3e40f9fd140, 422013, 0
56835, 178968, c3e40f98b640, 42200f, 0
56873, 178970, 5cb41dc5c880, 42200b, 0
56912, 178971, 5cb41dc5dbc0, 42200b, 0
56900, 178978, 5cb41dc59200, 42200f, 0
56926, 178979, c3e40f98bf00, 42200f, 0
56850, 178992, 5cb41dc5b540, 422017, 0
56876, 179208, c3e40f98db80, 422017, 0
57041, 179585, c3e40f9f1bc0, 407c86, 0
57043, 179586, c3e40f9edbc0, 407c8e, 0
57045, 179587, c3e40f9e8700, 407c96, 0
57052, 179918, c3e40fa01300, 407cb3, 0
57051, 180069, c3e40fa02300, 407cae, 0
57195, 180197, c3e40fa02340, 407cae, 0
57196, 180203, c3e40fa01340, 407cb3, 0
57387, 180529, c3e40fa02380, 407cae, 0
57388, 180543, c3e40fa01380, 407cb3, 0
57525, 180828, c3e40f9eb700, 407cf3, 0
57612, 180858, c3e40fa023c0, 407cae, 0
57613, 180862, c3e40fa013c0, 407cb3, 0
57804, 181184, c3e40fa02400, 407cae, 0
57805, 181192, c3e40fa01400, 407cb3, 0
57996, 181480, c3e40fa02440, 407cae, 0
57997, 181485, c3e40fa01440, 407cb3, 0
58041, 181912, c3e40fa03480, 41bd26, 0
58193, 182248, c3e40fa00080, 402350, 0
58208, 182257, 5cb41dc55b80, 421ee4, 0
58209, 182481, c3e40f9ecd00, 421ee8, 0
58226, 182615, c3e40f9fd240, 422000, 0
58292, 182623, c3e40f9fd280, 422003, 0
58433, 183028, c3e40f9f1cc0, 407c86, 0
58435, 183037, c3e40f9edcc0, 407c8e, 0
58437, 183038, c3e40f9e8740, 407c96, 0
58444, 183361, c3e40fa04400, 407cb3, 0
58540, 183365, c3e40fa04440, 407cb3, 0
58443, 183512, c3e40fa05400, 407cae, 0
58539, 183516, c3e40fa05440, 407cae, 0
58731, 183679, c3e40fa05480, 407cae, 0
58732, 183688, c3e40fa04480, 407cb3, 0
58917, 184023, c3e40f9eb780, 407cf3, 0
59054, 184264, c3e40fa000c0, 402350, 0
59070, 184276, c3e40f9ecd80, 421ee8, 0
59087, 184404, c3e40f9fd300, 422000, 0
59129, 184629, c3e40f98f840, 42200b, 0
59130, 184853, 5cb41dc5ac40, 42200f, 0
59132, 185077, 5cb41dc5ba80, 422017, 0
59153, 185310, c3e40f9fd340, 422003, 0
59143, 185324, 5cb41dc5eb40, 42200f, 0
59168, 185534, 5cb41dc59f80, 42200b, 0
59181, 185535, 5cb41dc59840, 42200b, 0
59182, 185659, c3e40f98ba40, 42200f, 0
59297, 186010, c3e40f9f1d00, 407c86, 0
59299, 186011, c3e40f9edd40, 407c8e, 0
59301, 186012, c3e40f9e8780, 407c96, 0
59308, 186137, c3e40fa04d40, 407cb3, 0
59307, 186238, c3e40fa05d40, 407cae, 0
59487, 186450, c3e40fa05d80, 407cae, 0
59488, 186682, c3e40fa04d80, 407cb3, 0
59679, 186827, c3e40fa05dc0, 407cae, 0
59680, 186833, c3e40fa04dc0, 407cb3, 0
59798, 186873, c3e40f9f1d40, 407c86, 0
59808, 187002, c3e40fa05f80, 407cae, 0
59809, 187097, c3e40fa04f80, 407cb3, 0
59844, 187241, c3e40fa05fc0, 407cae, 0
59845, 187254, c3e40fa04fc0, 407cb3, 0
60036, 187636, c3e40fa06000, 407cae, 0
60037, 187653, c3e40fa07000, 407cb3, 0
60228, 187864, c3e40fa06040, 407cae, 0
60229, 187871, c3e40fa07040, 407cb3, 0
60282, 188158, c3e40f9eb7c0, 407cf3, 0
60297, 188517, c3e40fa08640, 41bd26, 0
60426, 188652, c3e40fa00100, 402350, 0
60442, 188661, c3e40f9ece00, 421ee8, 0
60459, 188893, c3e40f9fd3c0, 422000, 0
60525, 188901, c3e40f9fd400, 422003, 0
60540, 189127, c3e40f98fe40, 42200b, 0
60476, 189128, c3e40f98b880, 42200f, 0
60669, 189506, c3e40fa00140, 407c92, 0
60666, 189507, c3e40f9f1dc0, 407c86, 0
60668, 189514, c3e40f9eddc0, 407c8e, 0
60670, 189730, c3e40f9e87c0, 407c96, 0
60677, 189750, c3e40fa078c0, 407cb3, 0
60676, 189785, c3e40fa068c0, 407cae, 0
60796, 189790, c3e40fa06900, 407cae, 0
60797, 189928, c3e40fa07900, 407cb3, 0
60988, 190098, c3e40fa06940, 407cae, 0
60989, 190109, c3e40fa07940, 407cb3, 0
61150, 190307, c3e40f9eb800, 407cf3, 0
61207, 190380, c3e40f9a0440, 402660, 0
61280, 190694, c3e40f9ece40, 421ee8, 0
61328, 190932, c3e40f9fd440, 422013, 0
61504, 191290, c3e40f9f1e00, 407c86, 0
61506, 191298, c3e40f9ede00, 407c8e, 0
61508, 191299, c3e40f9e8800, 407c96, 0
61515, 191516, c3e40fa07e40, 407cb3, 0
61514, 191667, c3e40fa06e40, 407cae, 0
61646, 191825, c3e40fa06e80, 407cae, 0
61647, 191840, c3e40fa07e80, 407cb3, 0
61838, 192121, c3e40fa06ec0, 407cae, 0
61839, 192127, c3e40fa07ec0, 407cb3, 0
62118, 192479, c3e40f9ece80, 421ee8, 0
62135, 192713, c3e40f9fd480, 422000, 0
62201, 192721, c3e40f9fd4c0, 422003, 0
62152, 192954, 5cb41dc5e700, 42200f, 0
62204, 192955, c3e40f990f00, 42200f, 0
62232, 192978, c3e40f98dec0, 422017, 0
62339, 193456, c3e40fa00180, 407c78, 0
62344, 193583, c3e40f9ede40, 407c8e, 0
62353, 193707, c3e40fa090c0, 407cb3, 0
62352, 193916, c3e40fa0a0c0, 407cae, 0
62532, 194053, c3e40fa0a100, 407cae, 0
62533, 194059, c3e40fa09100, 407cb3, 0
62724, 194375, c3e40fa0a140, 407cae, 0
62725, 194389, c3e40fa09140, 407cb3, 0
62955, 194632, 5cb41dc55bc0, 421ee4, 0
62956, 194856, c3e40f9ecec0, 421ee8, 0
63004, 195086, c3e40f9fd500, 422013, 0
62990, 195098, c3e40f990d40, 42200f, 0
63041, 195352, 5cb41dc596c0, 42200b, 0
63067, 195357, 5cb41dc59980, 42200b, 0
63031, 195382, 5cb41dc5b680, 422017, 0
63180, 195688, c3e40f9f1e80, 407c86, 0
63182, 195696, c3e40f9ede80, 407c8e, 0
63184, 195697, c3e40f9e8840, 407c96, 0
63191, 195915, c3e40fa09800, 407cb3, 0
63190, 196066, c3e40fa0a800, 407cae, 0
63322, 196193, c3e40fa0a840, 407cae, 0
63323, 196200, c3e40fa09840, 407cb3, 0
63514, 196520, c3e40fa0a880, 407cae, 0
63515, 196527, c3e40fa09880, 407cb3, 0
63658, 196802, c3e40fa001c0, 407cdc, 0
63664, 197026, c3e40f9eb840, 407cf3, 0
63870, 197453, c3e40fa00240, 402350, 0
63886, 197579, c3e40fa0b000, 421ee8, 0
63903, 197713, c3e40f9fd6c0, 422000, 0
63969, 197721, c3e40f9fd700, 422003, 0
63984, 197845, 5cb41dc5d7c0, 42200b, 0
63997, 197846, 5cb41dc5c8c0, 42200b, 0
63909, 197955, c3e40f98e0c0, 422017, 0
64000, 198111, c3e40f98eec0, 422017, 0
64113, 198330, c3e40fa00280, 407c92, 0
64110, 198337, c3e40f9f1fc0, 407c86, 0
64112, 198338, c3e40f9edfc0, 407c8e, 0
64114, 198454, c3e40f9e88c0, 407c96, 0
64121, 198670, c3e40fa0c040, 407cb3, 0
64157, 198671, c3e40fa0c080, 407cb3, 0
64120, 198821, c3e40fa0d040, 407cae, 0
64156, 198822, c3e40fa0d080, 407cae, 0
64348, 198973, c3e40fa0d0c0, 407cae, 0
64349, 198982, c3e40fa0c0c0, 407cb3, 0
64540, 199289, c3e40fa0d100, 407cae, 0
64541, 199298, c3e40fa0c100, 407cb3, 0
64657, 199447, 5cb41dc51800, 40290b, 0
64594, 199582, c3e40f9eb900, 407cf3, 0
64800, 199885, c3e40fa00300, 402350, 0
64815, 199886, 5cb41dc55c00, 421ee4, 0
64816, 200010, c3e40fa0b140, 421ee8, 0
64833, 200244, c3e40f9fd880, 422000, 0
64864, 200248, c3e40f9fd8c0, 422013, 0
64837, 200478, c3e40f990940, 42200f, 0
64888, 200479, 5cb41dc59400, 42200b, 0
64901, 200480, 5cb41dc5c640, 42200b, 0
64852, 200489, 5cb41dc5bac0, 422017, 0
64917, 200527, c3e40f98d300, 422017, 0
64904, 200718, c3e40f98d100, 422017, 0
65041, 201011, c3e40fa00340, 407c8a, 0
65040, 201028, c3e40fa0e100, 407c86, 0
65044, 201327, c3e40f9e8980, 407c96, 0
65042, 201344, c3e40fa0f100, 407c8e, 0
65051, 201560, c3e40fa10800, 407cb3, 0
65075, 201561, c3e40fa10840, 407cb3, 0
65050, 201577, c3e40fa11800, 407cae, 0
65074, 201578, c3e40fa11840, 407cae, 0
65266, 201892, c3e40fa11880, 407cae, 0
65267, 201895, c3e40fa10880, 407cb3, 0
65458, 202188, c3e40fa118c0, 407cae, 0
65459, 202192, c3e40fa108c0, 407cb3, 0
65524, 202502, c3e40f9eb980, 407cf3, 0
65654, 202666, c3e40fa0b180, 421ee8, 0
65671, 202900, c3e40f9fd900, 422000, 0
65737, 202908, c3e40f9fd940, 422003, 0
65878, 203279, c3e40fa0e140, 407c86, 0
65880, 203280, c3e40fa0f140, 407c8e, 0
65889, 203506, c3e40fa10c40, 407cb3, 0
65901, 203507, c3e40fa10c80, 407cb3, 0
65888, 203557, c3e40fa11c40, 407cae, 0
65900, 203558, c3e40fa11c80, 407cae, 0
66092, 203800, c3e40fa11cc0, 407cae, 0
66093, 203807, c3e40fa10cc0, 407cb3, 0
66284, 204020, c3e40fa11d00, 407cae, 0
66285, 204030, c3e40fa10d00, 407cb3, 0
66465, 204311, c3e40f9a0480, 402660, 0
66362, 204313, c3e40f9eb9c0, 407cf3, 0
66522, 204575, c3e40fa003c0, 402350, 0
66538, 204816, c3e40fa0b240, 421ee8, 0
66555, 205050, c3e40f9fda00, 422000, 0
66586, 205054, c3e40f9fda40, 422013, 0
66597, 205284, c3e40f98f900, 42200b, 0
66626, 205301, c3e40f98e180, 422017, 0
66762, 205608, c3e40fa0e1c0, 407c86, 0
66764, 205616, c3e40fa0f200, 407c8e, 0
66766, 205617, c3e40f9e8a00, 407c96, 0
66773, 205939, c3e40fa129c0, 407cb3, 0
66857, 205940, c3e40fa12a00, 407cb3, 0
66772, 205956, c3e40fa139c0, 407cae, 0
66856, 205959, c3e40fa13a00, 407cae, 0
67048, 206282, c3e40fa13a40, 407cae, 0
67049, 206288, c3e40fa12a40, 407cb3, 0
67246, 206618, c3e40f9eba00, 407cf3, 0
67429, 206889, c3e40fa00440, 402350, 0
67444, 206898, 5cb41dc55c40, 421ee4, 0
67445, 207264, c3e40fa0b340, 421ee8, 0
67462, 207398, c3e40f9fdb80, 422000, 0
67493, 207402, c3e40f9fdbc0, 422013, 0
67465, 207622, 5cb41dc5d440, 42200b, 0
67670, 207887, c3e40fa00480, 407c8a, 0
67669, 207888, c3e40fa0e2c0, 407c86, 0
67671, 208112, c3e40fa0f2c0, 407c8e, 0
67673, 208113, c3e40f9e8a80, 407c96, 0
67680, 208336, c3e40fa14c00, 407cb3, 0
67740, 208337, c3e40fa14c40, 407cb3, 0
67679, 208353, c3e40fa15c00, 407cae, 0
67739, 208355, c3e40fa15c40, 407cae, 0
67931, 208643, c3e40fa15c80, 407cae, 0
67932, 208648, c3e40fa14c80, 407cb3, 0
68123, 208964, c3e40fa15cc0, 407cae, 0
68124, 208970, c3e40fa14cc0, 407cb3, 0
68153, 209253, c3e40f9eba80, 407cf3, 0
68290, 209527, c3e40fa004c0, 402350, 0
68306, 209536, c3e40fa0b3c0, 421ee8, 0
68323, 209769, c3e40f9fdc40, 422000, 0
68354, 209773, c3e40f9fdc80, 422013, 0
68352, 209994, 5cb41dc5d780, 42200b, 0
68418, 210013, c3e40f9904c0, 42200f, 0
68407, 210030, c3e40f98df00, 422017, 0
68530, 210271, c3e40fa0e380, 407c86, 0
68532, 210272, c3e40fa0f380, 407c8e, 0
68534, 210273, c3e40f9e8ac0, 407c96, 0
68541, 210702, c3e40fa168c0, 407cb3, 0
68565, 210703, c3e40fa16900, 407cb3, 0
68540, 210719, c3e40fa178c0, 407cae, 0
68564, 210720, c3e40fa17900, 407cae, 0
68756, 211025, c3e40fa17940, 407cae, 0
68757, 211035, c3e40fa16940, 407cb3, 0
68948, 211321, c3e40fa17980, 407cae, 0
68949, 211327, c3e40fa16980, 407cb3, 0
69014, 211638, c3e40f9ebac0, 407cf3, 0
69174, 211885, c3e40fa00500, 402350, 0
69190, 211896, c3e40fa0b480, 421ee8, 0
69207, 212130, c3e40f9fdd80, 422000, 0
69273, 212138, c3e40f9fddc0, 422003, 0
69236, 212355, c3e40f98f300, 42200b, 0
69302, 212373, 5cb41dc5a500, 42200f, 0
69263, 212374, 5cb41dc5e580, 42200f, 0
69291, 212395, c3e40f98ee40, 422017, 0
69411, 212826, c3e40fa00540, 407c78, 0
69414, 213052, c3e40fa0e440, 407c86, 0
69416, 213053, c3e40fa0f440, 407c8e, 0
69418, 213054, c3e40f9e8b00, 407c96, 0
69425, 213483, c3e40fa18800, 407cb3, 0
69461, 213484, c3e40fa18840, 407cb3, 0
69424, 213500, c3e40fa19800, 407cae, 0
69460, 213501, c3e40fa19840, 407cae, 0
69652, 213775, c3e40fa19880, 407cae, 0
69653, 213783, c3e40fa18880, 407cb3, 0
69844, 214100, c3e40fa198c0, 407cae, 0
69845, 214103, c3e40fa188c0, 407cb3, 0
69898, 214400, c3e40f9ebb40, 407cf3, 0
70027, 214625, 5cb41dc55c80, 421ee4, 0
70028, 214849, c3e40fa0b4c0, 421ee8, 0
70076, 215094, c3e40f9fde00, 422013, 0
70113, 215320, 5cb41dc59a40, 42200b, 0
70252, 215637, c3e40fa0e480, 407c86, 0
70254, 215645, c3e40fa0f480, 407c8e, 0
70256, 215654, c3e40f9e8b40, 407c96, 0
70263, 215870, c3e40fa18c40, 407cb3, 0
70287, 215871, c3e40fa18c80, 407cb3, 0
70262, 215915, c3e40fa19c40, 407cae, 0
70286, 215916, c3e40fa19c80, 407cae, 0
70478, 216200, c3e40fa19cc0, 407cae, 0
70479, 216210, c3e40fa18cc0, 407cb3, 0
70670, 216496, c3e40fa19d00, 407cae, 0
70671, 216502, c3e40fa18d00, 407cb3, 0
70730, 216510, c3e40fa00580, 407cdc, 0
70866, 216996, c3e40fa0b500, 421ee8, 0
70883, 217230, c3e40f9fde40, 422000, 0
70949, 217238, c3e40f9fde80, 422003, 0
70938, 217456, 5cb41dc5c2c0, 42200b, 0
70964, 217465, c3e40f98f800, 42200b, 0
70941, 217688, c3e40f98eb00, 422017, 0
71092, 218005, c3e40fa0f4c0, 407c8e, 0
71101, 218038, c3e40fa18ec0, 407cb3, 0
71100, 218229, c3e40fa19ec0, 407cae, 0
71172, 218446, c3e40fa19f00, 407cae, 0
71173, 218460, c3e40fa18f00, 407cb3, 0
71364, 218742, c3e40fa19f40, 407cae, 0
71365, 218748, c3e40fa18f40, 407cb3, 0
71556, 219064, c3e40fa19f80, 407cae, 0
71557, 219071, c3e40fa18f80, 407cb3, 0
71757, 219458, c3e40fa00600, 402350, 0
71773, 219475, c3e40fa0b600, 421ee8, 0
71790, 219733, c3e40f9fdfc0, 422000, 0
71856, 220015, c3e40fa1a000, 422003, 0
71820, 220027, c3e40f98b680, 42200f, 0
71846, 220028, 5cb41dc5a080, 42200f, 0
71885, 220248, 5cb41dc5a640, 42200f, 0
71861, 220294, c3e40f98e480, 422017, 0
71848, 220402, c3e40f98c080, 422017, 0
72000, 220681, c3e40fa00640, 407c92, 0
71997, 220688, c3e40fa0e5c0, 407c86, 0
71999, 220689, c3e40fa0f5c0, 407c8e, 0
72001, 220914, c3e40f9e8bc0, 407c96, 0
72008, 221130, c3e40fa1b380, 407cb3, 0
72104, 221140, c3e40fa1b3c0, 407cb3, 0
72007, 221147, c3e40fa1c380, 407cae, 0
72103, 221151, c3e40fa1c3c0, 407cae, 0
72295, 221466, c3e40fa1c400, 407cae, 0
72296, 221474, c3e40fa1b400, 407cb3, 0
72481, 221678, c3e40f9ebc00, 407cf3, 0
72538, 221926, c3e40f9a04c0, 402660, 0
72611, 222208, c3e40fa0b640, 421ee8, 0
72659, 222346, c3e40fa1a040, 422013, 0
72710, 222581, c3e40f990100, 42200f, 0
72725, 222613, c3e40f98d8c0, 422017, 0
72699, 222618, c3e40f98ef00, 422017, 0
72835, 223036, c3e40fa0e600, 407c86, 0
72837, 223044, c3e40fa0f600, 407c8e, 0
72839, 223045, c3e40f9e8c00, 407c96, 0
72846, 223260, c3e40fa1b900, 407cb3, 0
72845, 223311, c3e40fa1c900, 407cae, 0
72953, 223559, c3e40fa1c940, 407cae, 0
72954, 223570, c3e40fa1b940, 407cb3, 0
73145, 223755, c3e40fa1c980, 407cae, 0
73146, 223761, c3e40fa1b980, 407cb3, 0
73548, 224251, c3e40fa00740, 402350, 0
73563, 224260, 5cb41dc55cc0, 421ee4, 0
73564, 224484, c3e40fa0b7c0, 421ee8, 0
73581, 224718, c3e40fa1a240, 422000, 0
73612, 224723, c3e40fa1a280, 422013, 0
73636, 224949, 5cb41dc59c80, 42200b, 0
73675, 224950, c3e40f98ff00, 42200b, 0
73624, 224956, c3e40f990c80, 42200f, 0
73639, 225181, c3e40f991400, 422017, 0
73788, 225487, c3e40fa0e780, 407c86, 0
73790, 225495, c3e40fa0f780, 407c8e, 0
73792, 225496, c3e40f9e8cc0, 407c96, 0
73799, 225918, c3e40fa1d6c0, 407cb3, 0
73823, 225919, c3e40fa1d700, 407cb3, 0
73798, 225935, c3e40fa1e6c0, 407cae, 0
73822, 225936, c3e40fa1e700, 407cae, 0
74014, 226245, c3e40fa1e740, 407cae, 0
74015, 226256, c3e40fa1d740, 407cb3, 0
74206, 226541, c3e40fa1e780, 407cae, 0
74207, 226547, c3e40fa1d780, 407cb3, 0
74272, 226835, c3e40f9ebcc0, 407cf3, 0
74402, 227068, c3e40fa0b800, 421ee8, 0
74419, 227302, c3e40fa1a2c0, 422000, 0
74485, 227310, c3e40fa1a300, 422003, 0
74423, 227536, 5cb41dc591c0, 42200f, 0
74462, 227538, c3e40f98b3c0, 42200f, 0
74477, 227554, c3e40f98d740, 422017, 0
74425, 227760, 5cb41dc5b6c0, 422017, 0
74629, 228130, c3e40fa00780, 407c92, 0
74636, 228364, c3e40fa1e8c0, 407cae, 0
74637, 228380, c3e40fa1d8c0, 407cb3, 0
74792, 228650, c3e40fa1e900, 407cae, 0
74793, 228659, c3e40fa1d900, 407cb3, 0
74984, 228883, c3e40fa1e940, 407cae, 0
74985, 228897, c3e40fa1d940, 407cb3, 0
75173, 229294, 5cb41dc51840, 40290b, 0
75263, 229579, c3e40fa0b880, 421ee8, 0
75280, 229807, c3e40fa1a380, 422000, 0
75346, 230113, c3e40fa1a3c0, 422003, 0
75348, 230337, 5cb41dc59ac0, 42200b, 0
75484, 230682, c3e40fa007c0, 407c78, 0
75487, 230908, c3e40fa0e800, 407c86, 0
75489, 230909, c3e40fa0f840, 407c8e, 0
75491, 230910, c3e40f9e8d00, 407c96, 0
75498, 231239, c3e40fa1f300, 407cb3, 0
75570, 231240, c3e40fa1f340, 407cb3, 0
75497, 231256, c3e40fa20300, 407cae, 0
75569, 231259, c3e40fa20340, 407cae, 0
75761, 231679, c3e40fa20380, 407cae, 0
75762, 231688, c3e40fa1f380, 407cb3, 0
75953, 232075, c3e40fa203c0, 407cae, 0
75954, 232080, c3e40fa1f3c0, 407cb3, 0
75971, 232463, c3e40f9ebd00, 407cf3, 0
76100, 232731, 5cb41dc55d00, 421ee4, 0
76101, 232955, c3e40fa0b8c0, 421ee8, 0
76149, 233193, c3e40fa1a400, 422013, 0
76134, 233204, 5cb41dc5c340, 42200b, 0
76148, 233235, 5cb41dc5ee80, 42200f, 0
76202, 233435, c3e40f98e040, 422017, 0
76215, 233436, c3e40f98edc0, 422017, 0
76328, 233771, c3e40fa0e880, 407c86, 0
76330, 233772, c3e40fa0f880, 407c8e, 0
76332, 233773, c3e40f9e8d40, 407c96, 0
76339, 233995, c3e40fa1f940, 407cb3, 0
76338, 234046, c3e40fa20940, 407cae, 0
76530, 234419, c3e40fa20980, 407cae, 0
76531, 234422, c3e40fa1f980, 407cb3, 0
76722, 234815, c3e40fa209c0, 407cae, 0
76723, 234819, c3e40fa1f9c0, 407cb3, 0
76806, 235202, c3e40fa00800, 407cdc, 0
76839, 235234, c3e40fa20b00, 407cae, 0
76840, 235235, c3e40fa1fb00, 407cb3, 0
76812, 235432, c3e40f9ebd40, 407cf3, 0
76971, 235677, c3e40fa20b40, 407cae, 0
76972, 235682, c3e40fa1fb40, 407cb3, 0
77163, 236102, c3e40fa20b80, 407cae, 0
77164, 236111, c3e40fa1fb80, 407cb3, 0
77466, 236769, c3e40fa0b940, 421ee8, 0
77483, 237003, c3e40fa1a480, 422000, 0
77514, 237007, c3e40fa1a4c0, 422013, 0
77551, 237239, c3e40f98f680, 42200b, 0
77515, 237248, c3e40f98d4c0, 422017, 0
77528, 237278, c3e40f98e200, 422017, 0
77694, 237594, c3e40fa00840, 407c8a, 0
77693, 237595, c3e40fa0e8c0, 407c86, 0
77695, 237819, c3e40fa0f8c0, 407c8e, 0
77697, 237820, c3e40f9e8d80, 407c96, 0
77704, 238043, c3e40fa21080, 407cb3, 0
77703, 238060, c3e40fa22080, 407cae, 0
77847, 238354, c3e40fa220c0, 407cae, 0
77848, 238367, c3e40fa210c0, 407cb3, 0
78039, 238650, c3e40fa22100, 407cae, 0
78040, 238656, c3e40fa21100, 407cb3, 0
78194, 238978, c3e40fa0e900, 407c86, 0
78196, 238979, c3e40fa0f900, 407c8e, 0
78177, 238986, c3e40f9ebd80, 407cf3, 0
78205, 239205, c3e40fa214c0, 407cb3, 0
78204, 239256, c3e40fa224c0, 407cae, 0
78336, 239383, c3e40fa22500, 407cae, 0
78337, 239390, c3e40fa21500, 407cb3, 0
78528, 239712, c3e40fa22540, 407cae, 0
78529, 239725, c3e40fa21540, 407cb3, 0
78692, 240071, c3e40f9a17c0, 41bd26, 0
78814, 240234, c3e40fa0b980, 421ee8, 0
78831, 240458, c3e40fa1a500, 422000, 0
78847, 240682, c3e40f98f3c0, 42200b, 0
78897, 240919, c3e40fa1a540, 422003, 0
78873, 240926, 5cb41dc5b200, 42200b, 0
78874, 241151, 5cb41dc5af80, 42200f, 0
79040, 241482, c3e40fa0f940, 407c8e, 0
79049, 241509, c3e40fa21740, 407cb3, 0
79048, 241709, c3e40fa22740, 407cae, 0
79228, 241958, c3e40fa22780, 407cae, 0
79229, 241971, c3e40fa21780, 407cb3, 0
79420, 242254, c3e40fa227c0, 407cae, 0
79421, 242260, c3e40fa217c0, 407cb3, 0
79636, 242671, c3e40fa00880, 402350, 0
79652, 242688, c3e40fa0b9c0, 421ee8, 0
79700, 242926, c3e40fa1a580, 422013, 0
79876, 243208, c3e40fa0e980, 407c86, 0
79878, 243209, c3e40fa0f980, 407c8e, 0
79880, 243210, c3e40f9e8dc0, 407c96, 0
79887, 243432, c3e40fa21d40, 407cb3, 0
79886, 243483, c3e40fa22d40, 407cae, 0
79994, 243631, c3e40fa22d80, 407cae, 0
79995, 243642, c3e40fa21d80, 407cb3, 0
80186, 243927, c3e40fa22dc0, 407cae, 0
80187, 243933, c3e40fa21dc0, 407cb3, 0
80360, 244267, c3e40f9ebdc0, 407cf3, 0
80490, 244500, c3e40fa0ba00, 421ee8, 0
80507, 244734, c3e40fa1a5c0, 422000, 0
80573, 244742, c3e40fa1a600, 422003, 0
80523, 244960, c3e40f98fb00, 42200b, 0
80575, 244967, c3e40f98fb80, 42200b, 0
80588, 244968, 5cb41dc59380, 42200b, 0
80524, 245184, c3e40f9903c0, 42200f, 0
80602, 245185, c3e40f990380, 42200f, 0
80526, 245408, c3e40f98d1c0, 422017, 0
80720, 245750, c3e40fa008c0, 407c92, 0
80719, 245757, c3e40fa0f9c0, 407c8e, 0
80727, 246194, c3e40fa23100, 407cae, 0
80728, 246201, c3e40fa24100, 407cb3, 0
80907, 246487, c3e40fa23140, 407cae, 0
80908, 246496, c3e40fa24140, 407cb3, 0
81099, 246709, c3e40fa23180, 407cae, 0
81100, 246717, c3e40fa24180, 407cb3, 0
81218, 246760, c3e40fa0e9c0, 407c86, 0
81228, 246984, c3e40fa23340, 407cae, 0
81264, 246998, c3e40fa23380, 407cae, 0
81241, 246999, c3e40fa24340, 407cb3, 0
81265, 247006, c3e40fa24380, 407cb3, 0
81456, 247221, c3e40fa233c0, 407cae, 0
81457, 247230, c3e40fa243c0, 407cb3, 0
81648, 247517, c3e40fa23400, 407cae, 0
81649, 247525, c3e40fa24400, 407cb3, 0
81702, 247829, c3e40f9ebe00, 407cf3, 0
81759, 248154, c3e40f9a0500, 402660, 0
81832, 248219, c3e40fa0ba40, 421ee8, 0
81880, 248349, c3e40fa1a640, 422013, 0
82056, 248764, c3e40fa0ea00, 407c86, 0
82058, 248765, c3e40fa0fa00, 407c8e, 0
82060, 248766, c3e40f9e8e00, 407c96, 0
82067, 248991, c3e40fa24680, 407cb3, 0
82066, 249042, c3e40fa23680, 407cae, 0
82258, 249284, c3e40fa236c0, 407cae, 0
82259, 249290, c3e40fa246c0, 407cb3, 0
82450, 249608, c3e40fa23700, 407cae, 0
82451, 249617, c3e40fa24700, 407cb3, 0
82677, 249967, c3e40fa00900, 402350, 0
82692, 249976, 5cb41dc55d40, 421ee4, 0
82693, 250200, c3e40fa0bac0, 421ee8, 0
82710, 250424, c3e40fa1a6c0, 422000, 0
82741, 250716, c3e40fa1a700, 422013, 0
82752, 250941, 5cb41dc5c780, 42200b, 0
82765, 250942, c3e40f98ff40, 42200b, 0
82778, 250943, c3e40f98f200, 42200b, 0
82753, 251165, 5cb41dc5a780, 42200f, 0
82768, 251181, 5cb41dc5b800, 422017, 0
82779, 251182, c3e40f98ba80, 42200f, 0
82755, 251289, c3e40f98e800, 422017, 0
82920, 251679, c3e40fa0ea40, 407c86, 0
82922, 251680, c3e40fa0fa80, 407c8e, 0
82924, 251681, c3e40f9e8e40, 407c96, 0
82931, 251906, c3e40fa24f80, 407cb3, 0
83015, 251915, c3e40fa24fc0, 407cb3, 0
82930, 251917, c3e40fa23f80, 407cae, 0
83014, 251921, c3e40fa23fc0, 407cae, 0
83206, 252458, c3e40fa25000, 407cae, 0
83207, 252459, c3e40fa26000, 407cb3, 0
83398, 252753, c3e40fa00940, 407cdc, 0
83421, 252776, c3e40fa0ea80, 407c86, 0
83404, 252977, c3e40f9ebe40, 407cf3, 0
83431, 253138, c3e40fa250c0, 407cae, 0
83539, 253149, c3e40fa25100, 407cae, 0
83432, 253151, c3e40fa260c0, 407cb3, 0
83540, 253158, c3e40fa26100, 407cb3, 0
83731, 253460, c3e40fa25140, 407cae, 0
83732, 253467, c3e40fa26140, 407cb3, 0
83919, 253857, c3e40f9d2940, 41bd26, 0
84064, 254110, c3e40fa0bb40, 421ee8, 0
84081, 254338, c3e40fa1a780, 422000, 0
84112, 254342, c3e40fa1a7c0, 422013, 0
84111, 254586, c3e40f98b040, 42200f, 0
84098, 254587, c3e40f98bfc0, 42200f, 0
84085, 254594, 5cb41dc5e400, 42200f, 0
84126, 254601, c3e40f98c300, 422017, 0
84139, 254874, c3e40f98e380, 422017, 0
84163, 254882, 5cb41dc59280, 42200f, 0
84292, 255202, c3e40fa00980, 407c8a, 0
84291, 255210, c3e40fa0eac0, 407c86, 0
84293, 255427, c3e40fa0fb00, 407c8e, 0
84295, 255428, c3e40f9e8e80, 407c96, 0
84302, 255447, c3e40fa26940, 407cb3, 0
84386, 255450, c3e40fa26980, 407cb3, 0
84301, 255660, c3e40fa25940, 407cae, 0
84385, 255663, c3e40fa25980, 407cae, 0
84577, 255851, c3e40fa259c0, 407cae, 0
84578, 255858, c3e40fa269c0, 407cb3, 0
84792, 256160, c3e40fa0eb00, 407c86, 0
84802, 256168, c3e40fa25a80, 407cae, 0
84775, 256173, c3e40f9ebe80, 407cf3, 0
84803, 256284, c3e40fa26a80, 407cb3, 0
84910, 256634, c3e40fa25ac0, 407cae, 0
84911, 256643, c3e40fa26ac0, 407cb3, 0
85102, 256930, c3e40fa25b00, 407cae, 0
85103, 256936, c3e40fa26b00, 407cb3, 0
85291, 257339, c3e40f995c80, 41bd26, 0
85420, 257574, c3e40fa009c0, 402350, 0
85436, 257583, c3e40fa0bbc0, 421ee8, 0
85453, 257857, c3e40fa1a840, 422000, 0
85484, 257861, c3e40fa1a880, 422013, 0
85470, 258104, 5cb41dc5a7c0, 42200f, 0
85548, 258385, c3e40f98b300, 42200f, 0
85550, 258609, c3e40f991480, 422017, 0
85666, 258978, c3e40fa0eb40, 407c86, 0
85668, 258979, c3e40fa0fb80, 407c8e, 0
85670, 258980, c3e40f9e8ec0, 407c96, 0
85677, 259412, c3e40fa27280, 407cb3, 0
85676, 259417, c3e40fa28280, 407cae, 0
85844, 259699, c3e40fa282c0, 407cae, 0
85845, 259706, c3e40fa272c0, 407cb3, 0
86036, 260024, c3e40fa28300, 407cae, 0
86037, 260027, c3e40fa27300, 407cb3, 0
86167, 260299, c3e40fa0eb80, 407c86, 0
86177, 260317, c3e40fa283c0, 407cae, 0
86150, 260322, c3e40f9ebec0, 407cf3, 0
86178, 260424, c3e40fa273c0, 407cb3, 0
86369, 260632, c3e40fa28400, 407cae, 0
86370, 260641, c3e40fa27400, 407cb3, 0
86561, 260928, c3e40fa28440, 407cae, 0
86562, 260933, c3e40fa27440, 407cb3, 0
86666, 261293, c3e40fa035c0, 41bd26, 0
86793, 261348, c3e40fa28480, 407cae, 0
86794, 261517, c3e40fa27480, 407cb3, 0
86985, 261693, c3e40fa284c0, 407cae, 0
86986, 261708, c3e40fa274c0, 407cb3, 0
87295, 262192, c3e40fa00a00, 402350, 0
87311, 262432, c3e40fa0bc40, 421ee8, 0
[...]
1950114, 4327894, afd5fea4bdc0, 402709, 1
1950182, 4327991, afd5fea16fc0, 402700, 1
1950238, 4328133, afd5fea4be00, 402709, 1
1950306, 4328245, 725df4a87000, 402700, 1
1950343, 4328362, afd5fea4be40, 402709, 1
1950436, 4328530, 725df4a87040, 402700, 1
1950471, 4328625, afd5fea4be80, 402709, 1
1950558, 4328721, 725df4a87080, 402700, 1
1950593, 4328836, afd5fea4bec0, 402709, 1
1950690, 4328978, 725df4a870c0, 402700, 1
1950753, 4329140, afd5fea4bf00, 402709, 1
1950816, 4329255, 725df4a87100, 402700, 1
1950849, 4329356, afd5fea4bf40, 402709, 1
1950948, 4329460, 725df4a87140, 402700, 1
1950997, 4329611, afd5fea4bf80, 402709, 1
1951076, 4329707, 725df4a87180, 402700, 1
1951125, 4329836, afd5fea4bfc0, 402709, 1
1951212, 4329965, 725df4a871c0, 402700, 1
1951251, 4330004, c050d354f000, 402709, 1
1951348, 4330175, 725df4a87200, 402700, 1
1951385, 4330254, c050d354f040, 402709, 1
1951488, 4330357, 725df4a87240, 402700, 1
1951525, 4330447, c050d354f080, 402709, 1
1951626, 4330583, 725df4a87280, 402700, 1
1951663, 4330673, c050d354f0c0, 402709, 1
1951752, 4330826, 725df4a872c0, 402700, 1
1951797, 4330928, c050d354f100, 402709, 1
1951874, 4331071, 725df4a87300, 402700, 1
1951990, 4331232, 725df4a87340, 402700, 1
1952102, 4331327, 725df4a87380, 402700, 1
1952214, 4331417, 725df4a873c0, 402700, 1
1952294, 4331504, c050d354f200, 402709, 1
1952332, 4331573, 725df4a87400, 402700, 1
1952446, 4331740, 725df4a87440, 402700, 1
1952519, 4331825, c050d354f280, 402709, 1
1952560, 4331886, 725df4a87480, 402700, 1
1952672, 4331950, 725df4a874c0, 402700, 1
1952784, 4332045, 725df4a87500, 402700, 1
1952801, 4332114, c050d354f300, 402709, 1
1952852, 4332182, c050d354f340, 402709, 1
1952902, 4332245, 725df4a87540, 402700, 1
1953014, 4332329, 725df4a87580, 402700, 1
1953122, 4332431, c050d354f3c0, 402709, 1
1953128, 4332436, 725df4a875c0, 402700, 1
1953187, 4332517, c050d354f400, 402709, 1
1953244, 4332589, 725df4a87600, 402700, 1
1953324, 4332684, c050d354f440, 402709, 1
1953358, 4332709, 725df4a87640, 402700, 1
1953396, 4332784, c050d354f480, 402709, 1
1953476, 4332877, 725df4a87680, 402700, 1
1953588, 4332967, 725df4a876c0, 402700, 1
1953700, 4333062, 725df4a87700, 402700, 1
1953710, 4333129, c050d354f500, 402709, 1
1953735, 4333177, c050d354f540, 402709, 1
1953820, 4333262, 725df4a87740, 402700, 1
1953914, 4333354, c050d354f580, 402709, 1
1953938, 4333397, 725df4a87780, 402700, 1
1954050, 4333552, 725df4a877c0, 402700, 1
1954144, 4333643, c050d354f600, 402709, 1
1954164, 4333658, 725df4a87800, 402700, 1
1954272, 4333760, c050d354f640, 402709, 1
1954278, 4333765, 725df4a87840, 402700, 1
1954325, 4333869, c050d354f680, 402709, 1
1954396, 4333938, 725df4a87880, 402700, 1
1954443, 4334050, c050d354f6c0, 402709, 1
1954514, 4334119, 725df4a878c0, 402700, 1
1954603, 4334254, c050d354f700, 402709, 1
1954632, 4334288, 725df4a87900, 402700, 1
1954700, 4334417, c050d354f740, 402709, 1
1954750, 4334461, 725df4a87940, 402700, 1
1954804, 4334582, c050d354f780, 402709, 1
1954905, 4334738, c050d354f7c0, 402709, 1
1954996, 4334861, 725df4a879c0, 402700, 1
1955027, 4334942, c050d354f800, 402709, 1
1955118, 4335083, 725df4a87a00, 402700, 1
1955149, 4335156, c050d354f840, 402709, 1
1955244, 4335314, 725df4a87a40, 402700, 1
1955303, 4335395, c050d354f880, 402709, 1
1955364, 4335489, 725df4a87a80, 402700, 1
1955401, 4335623, c050d354f8c0, 402709, 1
1955484, 4335688, 725df4a87ac0, 402700, 1
1955515, 4335761, c050d354f900, 402709, 1
1955602, 4335859, 725df4a87b00, 402700, 1
1955689, 4335948, c050d354f940, 402709, 1
1955716, 4336006, 725df4a87b40, 402700, 1
1955784, 4336135, c050d354f980, 402709, 1
1955836, 4336202, 725df4a87b80, 402700, 1
1955874, 4336277, c050d354f9c0, 402709, 1
1955958, 4336395, 725df4a87bc0, 402700, 1
1956072, 4336547, 725df4a87c00, 402700, 1
1956096, 4336618, c050d354fa00, 402709, 1
1956105, 4336639, c050d354fa40, 402709, 1
1956246, 4336808, c050d354fa80, 402709, 1
1956314, 4336901, 725df4a87c80, 402700, 1
1956347, 4336997, c050d354fac0, 402709, 1
1956442, 4337159, 725df4a87cc0, 402700, 1
1956484, 4337276, c050d354fb00, 402709, 1
1956566, 4337378, 725df4a87d00, 402700, 1
1956601, 4337493, c050d354fb40, 402709, 1
1956702, 4337649, 725df4a87d40, 402700, 1
1956772, 4337830, c050d354fb80, 402709, 1
1956828, 4337910, 725df4a87d80, 402700, 1
1956942, 4338065, 725df4a87dc0, 402700, 1
1957029, 4338154, c050d354fc00, 402709, 1
1957060, 4338202, 725df4a87e00, 402700, 1
1957102, 4338318, c050d354fc40, 402709, 1
1957192, 4338483, 725df4a87e40, 402700, 1
1957253, 4338599, c050d354fc80, 402709, 1
1957316, 4338730, 725df4a87e80, 402700, 1
1957432, 4338894, 725df4a87ec0, 402700, 1
1957470, 4338969, c050d354fd00, 402709, 1
1957602, 4339318, c050d354fd40, 402709, 1
1957727, 4339505, c050d354fd80, 402709, 1
1957867, 4339684, c050d354fdc0, 402709, 1
1957944, 4339822, 725df4a87fc0, 402700, 1
1958056, 4339926, c050d36ad000, 402700, 1
1958073, 4339995, c050d354fe00, 402709, 1
1958098, 4340042, c050d354fe40, 402709, 1
1958184, 4340208, c050d36ad040, 402700, 1
1958247, 4340355, c050d354fe80, 402709, 1
1958308, 4340453, c050d36ad080, 402700, 1
1958341, 4340581, c050d354fec0, 402709, 1
1958432, 4340723, c050d36ad0c0, 402700, 1
1958467, 4340818, c050d354ff00, 402709, 1
1958560, 4340977, c050d36ad100, 402700, 1
1958602, 4341100, c050d354ff40, 402709, 1
1958688, 4341244, c050d36ad140, 402700, 1
1958725, 4341357, c050d354ff80, 402709, 1
1958822, 4341529, c050d36ad180, 402700, 1
1958859, 4341646, c050d354ffc0, 402709, 1
1958954, 4341813, c050d36ad1c0, 402700, 1
1958991, 4341943, c050d36fe000, 402709, 1
1959080, 4342058, c050d36ad200, 402700, 1
1959192, 4342148, c050d36ad240, 402700, 1
1959370, 4342314, c050d36fe0c0, 402709, 1
1959428, 4342402, c050d36ad2c0, 402700, 1
1959467, 4342489, c050d36fe100, 402709, 1
1959552, 4342575, c050d36ad300, 402700, 1
1959620, 4342706, c050d36fe140, 402709, 1
1959670, 4342773, c050d36ad340, 402700, 1
1959701, 4342846, c050d36fe180, 402709, 1
1959794, 4342949, c050d36ad380, 402700, 1
1959827, 4343025, c050d36fe1c0, 402709, 1
1959951, 4343192, c050d36fe200, 402709, 1
1960040, 4343349, c050d36ad400, 402700, 1
1960205, 4343634, c050d36fe280, 402709, 1
1960308, 4343750, c050d36ad480, 402700, 1
1960442, 4343972, c050d36ad4c0, 402700, 1
1960479, 4344063, c050d36fe300, 402709, 1
1960562, 4344144, c050d36ad500, 402700, 1
1960674, 4344235, c050d36ad540, 402700, 1
1960677, 4344300, c050d36fe340, 402709, 1
1960716, 4344358, c050d36fe380, 402709, 1
1960798, 4344471, c050d36ad580, 402700, 1
1960910, 4344566, c050d36ad5c0, 402700, 1
1961022, 4344661, c050d36ad600, 402700, 1
1961074, 4344740, c050d36fe440, 402709, 1
1961142, 4344841, c050d36ad640, 402700, 1
1961256, 4345019, c050d36ad680, 402700, 1
1961280, 4345090, c050d36fe480, 402709, 1
1961296, 4345131, c050d36fe4c0, 402709, 1
1961374, 4345222, c050d36ad6c0, 402700, 1
1961461, 4345369, c050d36fe500, 402709, 1
1961488, 4345384, c050d36ad700, 402700, 1
1961527, 4345517, c050d36fe540, 402709, 1
1961624, 4345701, c050d36ad740, 402700, 1
1961659, 4345803, c050d36fe580, 402709, 1
1961744, 4345916, c050d36ad780, 402700, 1
1961824, 4346003, c050d36fe5c0, 402709, 1
1961866, 4346065, c050d36ad7c0, 402700, 1
1961929, 4346181, c050d36fe600, 402709, 1
1961988, 4346248, c050d36ad800, 402700, 1
1962093, 4346435, c050d36fe640, 402709, 1
1962106, 4346456, c050d36ad840, 402700, 1
1962165, 4346537, c050d36fe680, 402709, 1
1962222, 4346607, c050d36ad880, 402700, 1
1962316, 4346698, c050d36fe6c0, 402709, 1
1962336, 4346713, c050d36ad8c0, 402700, 1
1962371, 4346824, c050d36fe700, 402709, 1
1962464, 4346985, c050d36ad900, 402700, 1
1962510, 4347112, c050d36fe740, 402709, 1
1962600, 4347244, c050d36ad940, 402700, 1
1962633, 4347372, c050d36fe780, 402709, 1
1962718, 4347462, c050d36ad980, 402700, 1
1962756, 4347545, c050d36fe7c0, 402709, 1
1962964, 4347823, c050d36ada00, 402700, 1
1962974, 4347890, c050d36fe800, 402709, 1
1963039, 4347954, c050d36fe840, 402709, 1
1963080, 4347984, c050d36ada40, 402700, 1
1963200, 4348173, c050d36ada80, 402700, 1
1963233, 4348271, c050d36fe8c0, 402709, 1
1963324, 4348428, c050d36adac0, 402700, 1
1963444, 4348631, c050d36adb00, 402700, 1
1963566, 4348867, c050d36adb40, 402700, 1
1963611, 4348944, c050d36fe980, 402709, 1
1963686, 4349036, c050d36adb80, 402700, 1
1963721, 4349151, c050d36fe9c0, 402709, 1
1963814, 4349308, c050d36adbc0, 402700, 1
1963858, 4349443, c050d36fea00, 402709, 1
1963952, 4349557, c050d36adc00, 402700, 1
1963985, 4349674, c050d36fea40, 402709, 1
1964076, 4349825, c050d36adc40, 402700, 1
1964156, 4349964, c050d36fea80, 402709, 1
1964192, 4350044, c050d36adc80, 402700, 1
1964306, 4350215, c050d36adcc0, 402700, 1
1964418, 4350305, c050d36add00, 402700, 1
1964463, 4350382, c050d36feb40, 402709, 1
1964583, 4350625, c050d36feb80, 402709, 1
1964726, 4350850, c050d36febc0, 402709, 1
1964792, 4350934, c050d36addc0, 402700, 1
1964830, 4351009, c050d36fec00, 402709, 1
1964910, 4351127, c050d36ade00, 402700, 1
1964950, 4351225, c050d36fec40, 402709, 1
1965065, 4351415, c050d36fec80, 402709, 1
1965164, 4351575, c050d36ade80, 402700, 1
1965424, 4352144, c050d36adf00, 402700, 1
1965473, 4352280, c050d36fed40, 402709, 1
1965542, 4352360, c050d36adf40, 402700, 1
1965839, 4352622, c050d36fee00, 402709, 1
1965882, 4352672, 6d2c36593000, 402700, 1
1965994, 4352762, 6d2c36593040, 402700, 1
1966004, 4352829, c050d36fee40, 402709, 1
1966029, 4352877, c050d36fee80, 402709, 1
1966130, 4353057, 6d2c36593080, 402700, 1
1966184, 4353183, c050d36feec0, 402709, 1
1966246, 4353233, 6d2c365930c0, 402700, 1
1966431, 4353403, c050d36fef40, 402709, 1
1966681, 4353708, c050d36fefc0, 402709, 1
1966710, 4353742, 6d2c365931c0, 402700, 1
1966830, 4353967, 6d2c36593200, 402700, 1
1966981, 4354164, 6d2c365c2080, 402709, 1
1967074, 4354332, 6d2c36593280, 402700, 1
1967594, 4355084, 6d2c365c21c0, 402709, 1
1973371, 4362776, 5cb41dc44700, 402733, 0
1973380, 4363267, 5cb41dc44740, 4247f4, 0
1973378, 4363273, 5cb41dc47800, 4247ea, 0
1973382, 4363274, 5cb41dc477c0, 424800, 1
1973384, 4363436, f669ef7ecfc0, 42480b, 0
1973383, 4363607, f669ef7eda40, 424807, 0
1973387, 4363831, 5cb41dc481c0, 409f60, 0
1973394, 4364164, f669ef7ee300, 409f78, 0
1973395, 4364497, f669ef7ef440, 409f7c, 0
1973504, 4364508, f669ef7ef480, 409fa4, 0
1973398, 4364627, 5cb41dc4f640, 409f88, 0
1973416, 4364629, 5cb41dc4f680, 409f98, 0
1973577, 4364903, 5cb41dc4f580, 409f98, 0
1973584, 4364904, 5cb41dc4f5c0, 409f98, 0
1973728, 4365173, f669ef7ef4c0, 409fa4, 0
1973952, 4365443, f669ef7ef500, 409fa4, 0
1974176, 4365639, f669ef7ef540, 409fa4, 0
1974221, 4365873, 5cb41dc4f540, 409f98, 0
1974389, 4366269, f669ef7f0240, 409fae, 0
1974396, 4366377, f669ef7ef580, 409f7c, 0
1974624, 4366648, f669ef7ef5c0, 409fa4, 0
1974634, 4366777, 5cb41dc4f8c0, 409f98, 0
1974669, 4366780, 5cb41dc4f900, 409f98, 0
1974848, 4367057, f669ef7ef600, 409fa4, 0
1975072, 4367360, f669ef7ef640, 409fa4, 0
1975296, 4367630, f669ef7ef680, 409fa4, 0
1975520, 4367927, f669ef7ef6c0, 409fa4, 0
1975744, 4368202, f669ef7ef700, 409fa4, 0
1975968, 4368494, f669ef7ef740, 409fa4, 0
1976192, 4368799, f669ef7ef780, 409fa4, 0
1976419, 4369006, f669ef7ef7c0, 409f7c, 0
1976640, 4369319, f669ef7ef800, 409fa4, 0
1976864, 4369582, f669ef7ef840, 409fa4, 0
1976922, 4369736, f669ef7ee340, 409f78, 0
1977091, 4369913, f669ef7ef880, 409f7c, 0
1977084, 4369934, f669ef7f0280, 409fae, 0
1977312, 4370285, f669ef7ef8c0, 409fa4, 0
1977536, 4370582, f669ef7ef900, 409fa4, 0
1977756, 4370790, f669ef7ef940, 409f7c, 0
1977846, 4370954, f669ef7ee380, 409f78, 0
1977987, 4371186, f669ef7ef980, 409f7c, 0
1978208, 4371416, f669ef7ef9c0, 409fa4, 0
1978432, 4371794, f669ef7efa00, 409fa4, 0
1978656, 4372078, f669ef7efa40, 409fa4, 0
1978812, 4372267, f669ef7ee3c0, 409f78, 0
1978834, 4372410, f669ef7f02c0, 409fae, 0
1978880, 4372440, f669ef7efa80, 409fa4, 0
1979104, 4372805, f669ef7efac0, 409fa4, 0
1979328, 4373202, f669ef7efb00, 409fa4, 0
1979552, 4373504, f669ef7efb40, 409fa4, 0
1979750, 4373794, f669ef7ee400, 409f78, 0
1979776, 4374022, f669ef7efb80, 409fa4, 0
1980000, 4374284, f669ef7efbc0, 409fa4, 0
1980224, 4374555, f669ef7efc00, 409fa4, 0
1980451, 4374884, f669ef7efc40, 409f7c, 0
1980660, 4375266, f669ef7ee440, 409f78, 0
1980672, 4375392, f669ef7efc80, 409fa4, 0
1980780, 4375572, f669ef7f0300, 409fae, 0
1980896, 4375650, f669ef7efcc0, 409fa4, 0
1981120, 4375977, f669ef7efd00, 409fa4, 0
1981347, 4376317, f669ef7efd40, 409f7c, 0
1981568, 4376563, f669ef7efd80, 409fa4, 0
1981654, 4376727, f669ef7ee480, 409f78, 0
1981792, 4376964, f669ef7efdc0, 409fa4, 0
1982016, 4377267, f669ef7efe00, 409fa4, 0
1982240, 4377526, f669ef7efe40, 409fa4, 0
1982464, 4377827, f669ef7efe80, 409fa4, 0
1982655, 4378173, f669ef7ee4c0, 409f78, 0
1982688, 4378302, f669ef7efec0, 409fa4, 0
1982803, 4378471, f669ef7f0340, 409fae, 0
1982912, 4378723, f669ef7eff00, 409fa4, 0
1983136, 4378967, f669ef7eff40, 409fa4, 0
1983363, 4379378, f669ef7eff80, 409f7c, 0
1983584, 4379682, f669ef7effc0, 409fa4, 0
1983691, 4379856, f669ef7ee500, 409f78, 0
1983808, 4380149, f669ef7f1000, 409fa4, 0
1984032, 4380518, f669ef7f1040, 409fa4, 0
1984256, 4380918, f669ef7f1080, 409fa4, 0
1984476, 4381321, f669ef7f10c0, 409f7c, 0
1984664, 4381718, f669ef7ee540, 409f78, 0
1984704, 4381854, f669ef7f1100, 409fa4, 0
1984833, 4382139, f669ef7f0380, 409fae, 0
1984928, 4382389, f669ef7f1140, 409fa4, 0
1985152, 4382739, f669ef7f1180, 409fa4, 0
1985376, 4383013, f669ef7f11c0, 409fa4, 0
1985581, 4383412, f669ef7ee580, 409f78, 0
1985600, 4383639, f669ef7f1200, 409fa4, 0
1985824, 4383871, f669ef7f1240, 409fa4, 0
1986048, 4384126, f669ef7f1280, 409fa4, 0
1986272, 4384426, f669ef7f12c0, 409fa4, 0
1986496, 4384711, f669ef7f1300, 409fa4, 0
1986568, 4384963, f669ef7ee5c0, 409f78, 0
1986681, 4385239, f669ef7f03c0, 409fae, 0
1986720, 4385472, f669ef7f1340, 409fa4, 0
1986944, 4385735, f669ef7f1380, 409fa4, 0
1987168, 4386082, f669ef7f13c0, 409fa4, 0
1987392, 4386372, f669ef7f1400, 409fa4, 0
1987616, 4386642, f669ef7f1440, 409fa4, 0
1987709, 4386811, f669ef7ee600, 409f78, 0
1987840, 4387137, f669ef7f1480, 409fa4, 0
1988067, 4387378, f669ef7f14c0, 409f7c, 0
1988288, 4387647, f669ef7f1500, 409fa4, 0
1988514, 4387971, f669ef7ee640, 409f78, 0
1988515, 4388195, f669ef7f1540, 409f7c, 0
1988669, 4388476, f669ef7f0400, 409fae, 0
1988736, 4388503, f669ef7f1580, 409fa4, 0
1988960, 4388852, f669ef7f15c0, 409fa4, 0
1989187, 4389166, f669ef7f1600, 409f7c, 0
1989408, 4389396, f669ef7f1640, 409fa4, 0
1989424, 4389419, f669ef7ee680, 409f78, 0
1989632, 4389746, f669ef7f1680, 409fa4, 0
1989856, 4390127, f669ef7f16c0, 409fa4, 0
1990080, 4390337, f669ef7f1700, 409fa4, 0
1990304, 4390533, f669ef7f1740, 409fa4, 0
1990528, 4390830, f669ef7f1780, 409fa4, 0
1990752, 4391138, f669ef7f17c0, 409fa4, 0
1990971, 4391343, f669ef7ee6c0, 409f78, 0
1990972, 4391567, f669ef7f1800, 409f7c, 0
1990986, 4391703, f669ef7f0440, 409fae, 0
1991200, 4391853, f669ef7f1840, 409fa4, 0
1991424, 4392151, f669ef7f1880, 409fa4, 0
1991622, 4392451, f669ef7ee700, 409f78, 0
1991648, 4392679, f669ef7f18c0, 409fa4, 0
1991868, 4392990, f669ef7f1900, 409f7c, 0
1992096, 4393371, f669ef7f1940, 409fa4, 0
1992320, 4393675, f669ef7f1980, 409fa4, 0
1992455, 4393861, f669ef7ee740, 409f78, 0
1992470, 4394102, f669ef7f0480, 409fae, 0
1992544, 4394158, f669ef7f19c0, 409fa4, 0
1992768, 4394592, f669ef7f1a00, 409fa4, 0
1992995, 4394831, f669ef7f1a40, 409f7c, 0
1993064, 4394988, f669ef7ee780, 409f78, 0
1993210, 4395277, f669ef7f1a80, 409f7c, 0
1993441, 4395691, f669ef7f1ac0, 409f7c, 0
1993662, 4396012, f669ef7f1b00, 409fa4, 0
1993734, 4396173, f669ef7ee7c0, 409f78, 0
1993749, 4396414, f669ef7f04c0, 409fae, 0
1993886, 4396543, f669ef7f1b40, 409fa4, 0
1994110, 4396969, f669ef7f1b80, 409fa4, 0
1994334, 4397330, f669ef7f1bc0, 409fa4, 0
1994497, 4397611, f669ef7ee800, 409f78, 0
1994558, 4397850, f669ef7f1c00, 409fa4, 0
1994780, 4398185, f669ef7f1c40, 409fa4, 0
1995002, 4398441, f669ef7f1c80, 409fa4, 0
1995207, 4398770, f669ef7ee840, 409f78, 0
1995226, 4398997, f669ef7f1cc0, 409fa4, 0
1995299, 4399159, f669ef7f0500, 409fae, 0
1995450, 4399291, f669ef7f1d00, 409fa4, 0
1995674, 4399603, f669ef7f1d40, 409fa4, 0
1995896, 4399910, f669ef7f1d80, 409fa4, 0
1995975, 4400075, f669ef7ee880, 409f78, 0
1996120, 4400371, f669ef7f1dc0, 409fa4, 0
1996344, 4400661, f669ef7f1e00, 409fa4, 0
1996568, 4400937, f669ef7f1e40, 409fa4, 0
1996724, 4401295, f669ef7ee8c0, 409f78, 0
1996792, 4401540, f669ef7f1e80, 409fa4, 0
1996870, 4401681, f669ef7f0540, 409fae, 0
1997014, 4401895, f669ef7f1ec0, 409fa4, 0
1997238, 4402302, f669ef7f1f00, 409fa4, 0
1997394, 4402562, f669ef7ee900, 409f78, 0
1997462, 4402807, f669ef7f1f40, 409fa4, 0
1997686, 4403067, f669ef7f1f80, 409fa4, 0
1997910, 4403343, f669ef7f1fc0, 409fa4, 0
1998134, 4403787, f669ef7f3000, 409fa4, 0
1998206, 4403949, f669ef7ee940, 409f78, 0
1998221, 4404190, f669ef7f0580, 409fae, 0
1998358, 4404388, f669ef7f3040, 409fa4, 0
1998582, 4404661, f669ef7f3080, 409fa4, 0
1998804, 4404932, f669ef7f30c0, 409fa4, 0
1998946, 4405119, f669ef7ee980, 409f78, 0
1999028, 4405381, f669ef7f3100, 409fa4, 0
1999213, 4405682, 5cb41dc4f240, 409f98, 0
1999252, 4405709, f669ef7f3140, 409fa4, 0
1999476, 4406103, f669ef7f3180, 409fa4, 0
1999700, 4406486, f669ef7f31c0, 409fa4, 0
1999926, 4406807, f669ef7ee9c0, 409f78, 0
1999927, 4407031, f669ef7f3200, 409f7c, 0
Finished CPU 0 instructions: 1000002 cycles: 2145336 cumulative IPC: 0.466128 (Simulation time: 0 hr 0 min 3 sec) 

ChampSim completed all CPUs

Region of Interest Statistics

CPU 0 cumulative IPC: 0.466128 instructions: 1000002 cycles: 2145336
L1D TOTAL     ACCESS:     167753  HIT:     144952  MISS:      22801
L1D LOAD      ACCESS:     132001  HIT:     109478  MISS:      22523
L1D RFO       ACCESS:      35752  HIT:      35474  MISS:        278
L1D PREFETCH  ACCESS:          0  HIT:          0  MISS:          0
L1D WRITEBACK ACCESS:          0  HIT:          0  MISS:          0
L1D PREFETCH  REQUESTED:          0  ISSUED:          0  USEFUL:          0  USELESS:          0
L1D AVERAGE MISS LATENCY: 132.725 cycles
L1I TOTAL     ACCESS:     178157  HIT:     178151  MISS:          6
L1I LOAD      ACCESS:     178157  HIT:     178151  MISS:          6
L1I RFO       ACCESS:          0  HIT:          0  MISS:          0
L1I PREFETCH  ACCESS:          0  HIT:          0  MISS:          0
L1I WRITEBACK ACCESS:          0  HIT:          0  MISS:          0
L1I PREFETCH  REQUESTED:          0  ISSUED:          0  USEFUL:          0  USELESS:          0
L1I AVERAGE MISS LATENCY: 218.667 cycles
L2C TOTAL     ACCESS:      23135  HIT:       7805  MISS:      15330
L2C LOAD      ACCESS:      22529  HIT:       7482  MISS:      15047
L2C RFO       ACCESS:        278  HIT:          2  MISS:        276
L2C PREFETCH  ACCESS:          0  HIT:          0  MISS:          0
L2C WRITEBACK ACCESS:        328  HIT:        321  MISS:          7
L2C PREFETCH  REQUESTED:          0  ISSUED:          0  USEFUL:          0  USELESS:          0
L2C AVERAGE MISS LATENCY: 172.292 cycles
LLC TOTAL     ACCESS:      15636  HIT:       1001  MISS:      14635
LLC LOAD      ACCESS:      15047  HIT:        687  MISS:      14360
LLC RFO       ACCESS:        276  HIT:          1  MISS:        275
LLC PREFETCH  ACCESS:          0  HIT:          0  MISS:          0
LLC WRITEBACK ACCESS:        313  HIT:        313  MISS:          0
LLC PREFETCH  REQUESTED:          0  ISSUED:          0  USEFUL:          0  USELESS:          0
LLC AVERAGE MISS LATENCY: 147.766 cycles
Major fault: 0 Minor fault: 2245

DRAM Statistics
 CHANNEL 0
 RQ ROW_BUFFER_HIT:       7846  ROW_BUFFER_MISS:       6789
 DBUS_CONGESTED:       1738
 WQ ROW_BUFFER_HIT:         11  ROW_BUFFER_MISS:         15  FULL:          0

 AVG_CONGESTED_CYCLE: 5

CPU 0 Branch Prediction Accuracy: 96.3325% MPKI: 4.38297 Average ROB Occupancy at Mispredict: 96.8752

Branch types
NOT_BRANCH: 880272 88.027%
BRANCH_DIRECT_JUMP: 1369 0.1369%
BRANCH_INDIRECT: 0 0%
BRANCH_CONDITIONAL: 110048 11.0048%
BRANCH_DIRECT_CALL: 4045 0.404499%
BRANCH_INDIRECT_CALL: 0 0%
BRANCH_RETURN: 4047 0.404699%
BRANCH_OTHER: 0 0%

