
*** ChampSim Multicore Out-of-Order Simulator ***

Warmup Instructions: 1000000
Prefetch Warmup Instructions: 10000000
Simulation Instructions: 1000000
Number of CPUs: 1
LLC sets: 2048
LLC ways: 16
Off-chip DRAM Size: 4096 MB Channels: 1 Width: 64-bit Data Rate: 3200 MT/s

CPU 0 runs /Users/DHRUVA/Desktop/ML-DPC/ChampSimTraces/spec06/482.sphinx3-s2.trace.gz
Read seed: 1041
CPU 0 LLC from_file prefetcher

Warmup complete CPU 0 instructions: 1000004 cycles: 365952 (Simulation time: 0 hr 0 min 1 sec) 

Prefetch 77cd0fe13680 for instr_id 1000043
Prefetch 64c8be61d240 for instr_id 1000044
Prefetch 29d25cfb3140 for instr_id 1000044
Prefetch 4ba886291440 for instr_id 1000175
Prefetch 4ba886291140 for instr_id 1000175
Prefetch 5f3d9374f840 for instr_id 1000200
Prefetch 5f3d9374f140 for instr_id 1000200
Prefetch 776d24739240 for instr_id 1000209
Prefetch bca2c2528940 for instr_id 1000209
Prefetch 4537354fa680 for instr_id 1000181
Prefetch bdb2c33d1a40 for instr_id 1000208
Prefetch 911a15985340 for instr_id 1000208
Prefetch 34f00de52440 for instr_id 1000376
Prefetch 10dcf5388140 for instr_id 1000376
Prefetch e1dda79b7440 for instr_id 1000377
Prefetch e1dda79ec940 for instr_id 1000377
Prefetch 573850371840 for instr_id 1000568
Prefetch 573850371140 for instr_id 1000568
Prefetch 934deb64a140 for instr_id 1000569
Prefetch d3c2dc498680 for instr_id 1000569
Prefetch 44ed95045840 for instr_id 1000696
Prefetch f254027bf940 for instr_id 1000696
Prefetch afacaa949840 for instr_id 1000841
Prefetch dcc9d011b140 for instr_id 1000841
Prefetch d050b372d340 for instr_id 1000858
Prefetch d050b372d840 for instr_id 1000858
Prefetch 72e1362d1980 for instr_id 1000889
Prefetch 72e1362d1240 for instr_id 1000889
Prefetch fe8413202540 for instr_id 1001069
Prefetch fe8413202140 for instr_id 1001069
Prefetch fe8413202840 for instr_id 1001068
Prefetch 983a53aad140 for instr_id 1001068
Prefetch a72654c30940 for instr_id 1001070
Prefetch d0d9f9bc9180 for instr_id 1001070
Prefetch 8c160af55540 for instr_id 1001072
Prefetch 8c160af55140 for instr_id 1001072
Prefetch bf21f5a07240 for instr_id 1001079
Prefetch bf21f5a07a40 for instr_id 1001079
Prefetch bf21f5a07680 for instr_id 1001078
Prefetch 48d7cc9af540 for instr_id 1001222
Prefetch ac74e8ad7940 for instr_id 1001222
Prefetch 2598d148d840 for instr_id 1001223
Prefetch 7f032e90d540 for instr_id 1001223
Prefetch 9352e7789540 for instr_id 1001414
Prefetch 9352e7789140 for instr_id 1001414
Prefetch a781b1a38940 for instr_id 1001415
Prefetch bce1f2801340 for instr_id 1001415
Prefetch e5763cffb540 for instr_id 1001569
Prefetch fbb66d124540 for instr_id 1001569
Prefetch db2d6c1de440 for instr_id 1001571
Prefetch db2d6c1de840 for instr_id 1001571
Prefetch ac4afd04f540 for instr_id 1001552
Prefetch 2ff4c650c140 for instr_id 1001552
Prefetch 3816ac15f840 for instr_id 1001580
Prefetch 4dee2002140 for instr_id 1001580
Prefetch 7cdf3ddd5640 for instr_id 1001688
Prefetch 87d2c7745940 for instr_id 1001688
Prefetch d0cc7811340 for instr_id 1001579
Prefetch d0cc7811240 for instr_id 1001579
Prefetch 4580cdf47640 for instr_id 1001687
Prefetch 4580cdf47140 for instr_id 1001687
Prefetch 68d50671840 for instr_id 1001879
Prefetch a60e03df7140 for instr_id 1001879
Prefetch 146f4b619140 for instr_id 1001880
Prefetch d05668268340 for instr_id 1001880
Prefetch 2c8791690240 for instr_id 1002068
Prefetch 2c8791690a40 for instr_id 1002068
Prefetch baffc1e44540 for instr_id 1002190
Prefetch acc01393e640 for instr_id 1002190
Prefetch 36c3e860f540 for instr_id 1002207
Prefetch 916064c5c140 for instr_id 1002273
Prefetch 66e4290d9640 for instr_id 1002273
Prefetch 25f381660040 for instr_id 1002427
Prefetch 9611982a1440 for instr_id 1002427
Prefetch 2ff4c652a640 for instr_id 1002475
Prefetch a6226e5d8140 for instr_id 1002475
Prefetch 9611982a1840 for instr_id 1002428
Prefetch 9611982a1140 for instr_id 1002428
Prefetch 6b69b9f90440 for instr_id 1002476
Prefetch 6b69b9f90240 for instr_id 1002476
Prefetch b0801a36e240 for instr_id 1002667
Prefetch bca7bf2ba540 for instr_id 1002667
Prefetch 3d90c2340 for instr_id 1002668
Prefetch 1980fe941140 for instr_id 1002668
Prefetch 4fe5e2bfa140 for instr_id 1002859
Prefetch c3e40fa89340 for instr_id 1002859
Prefetch 4fe5e2bfa740 for instr_id 1002860
Prefetch 4fe5e2bfa140 for instr_id 1002860
Prefetch dcc0e0777540 for instr_id 1003084
Prefetch b235ddc8a740 for instr_id 1003085
Prefetch 578c5d1b6040 for instr_id 1003085
Prefetch 9558b7214840 for instr_id 1003276
Prefetch 9558b7214140 for instr_id 1003276
Prefetch 28276933740 for instr_id 1003277
Prefetch 28276933140 for instr_id 1003277
Prefetch d9b015f9a340 for instr_id 1003516
Prefetch 9813ac8b7840 for instr_id 1003532
Prefetch 5c0ef86ff140 for instr_id 1003532
Prefetch 697f53791540 for instr_id 1003580
Prefetch 697f53791240 for instr_id 1003580
Prefetch 7aa2a7c1d840 for instr_id 1003759
Prefetch 7aa2a7c1d140 for instr_id 1003759
Prefetch 8cd05ecd8040 for instr_id 1003761
Prefetch d4049b04d640 for instr_id 1003761
Prefetch fae6fd0d8840 for instr_id 1003763
Prefetch 24fbc221c140 for instr_id 1003763
Prefetch ccceae6da240 for instr_id 1003770
Prefetch 3d171a2c7840 for instr_id 1003770
Prefetch 8291a889d840 for instr_id 1003854
Prefetch 507360039140 for instr_id 1003854
Prefetch 1b109ff26340 for instr_id 1003769
Prefetch de0654066040 for instr_id 1003853
Prefetch e1aaf9f28540 for instr_id 1003853
Prefetch 4991bf559340 for instr_id 1004045
Prefetch 9d73a4c7a240 for instr_id 1004046
Prefetch 9d73a4c7aa40 for instr_id 1004046
Prefetch d8f456cfa840 for instr_id 1004243
Prefetch d8f456cfa140 for instr_id 1004243
Prefetch 8efa2f55b540 for instr_id 1004260
Prefetch 48c1ac424840 for instr_id 1004260
Prefetch aa469035e640 for instr_id 1004270
Prefetch aa469035e240 for instr_id 1004270
Prefetch aa469035e840 for instr_id 1004271
Prefetch aa469035e140 for instr_id 1004271
Prefetch 27aa02867840 for instr_id 1004402
Prefetch 4c0363c33040 for instr_id 1004402
Prefetch eddcca814840 for instr_id 1004403
Prefetch 25aabfd24140 for instr_id 1004403
Prefetch 76c5699b4140 for instr_id 1004594
Prefetch 26384ad2f340 for instr_id 1004594
Prefetch 9769c21d6040 for instr_id 1004595
Prefetch 9769c21d6240 for instr_id 1004595
Prefetch 37e178c21240 for instr_id 1004874
Prefetch 37e178c21940 for instr_id 1004874
Prefetch be003e5fb040 for instr_id 1004891
Prefetch be003e5fb240 for instr_id 1004891
Prefetch 8db3a4274040 for instr_id 1004957
Prefetch bc71ea046040 for instr_id 1004957
Prefetch f4841d3fe040 for instr_id 1005101
Prefetch f4841d3fe240 for instr_id 1005101
Prefetch 16c966487140 for instr_id 1005100
Prefetch c08b01a58340 for instr_id 1005100
Prefetch 36c3e859f840 for instr_id 1005108
Prefetch 2336a4aee540 for instr_id 1005108
Prefetch 40c1ec71c540 for instr_id 1005109
Prefetch a48d08737040 for instr_id 1005109
Prefetch 7ece44891240 for instr_id 1005288
Prefetch 7ece44891540 for instr_id 1005288
Prefetch 32dfadd3840 for instr_id 1005289
Prefetch 7d060f88b540 for instr_id 1005289
Prefetch d249a12dd540 for instr_id 1005480
Prefetch 9a94d33c8040 for instr_id 1005480
Prefetch c050d36ac740 for instr_id 1005481
Prefetch c050d36ac840 for instr_id 1005481
Prefetch acc01391c040 for instr_id 1005712
Prefetch 10504971f140 for instr_id 1005712
Prefetch 29ef9b4e4840 for instr_id 1005760
Prefetch 7218f8dea140 for instr_id 1005760
Prefetch d68bf6086540 for instr_id 1005939
Prefetch d35adef7040 for instr_id 1005939
Prefetch 9bd4770b2540 for instr_id 1005943
Prefetch cf27773d2040 for instr_id 1005943
Prefetch 326b80d87240 for instr_id 1005949
Prefetch 326b80d87840 for instr_id 1005950
Prefetch 2a3b8ad4e140 for instr_id 1005950
Prefetch f766d0168240 for instr_id 1006093
Prefetch f766d0168640 for instr_id 1006093
Prefetch a1a82cba8840 for instr_id 1006094
Prefetch 4acec82c0540 for instr_id 1006094
Prefetch bc808e2df240 for instr_id 1006285
Prefetch 90d48bc1a040 for instr_id 1006285
Prefetch 620fda348840 for instr_id 1006286
Prefetch a1a82c9fd440 for instr_id 1006442
Prefetch 54b3405e6540 for instr_id 1006442
Prefetch a37d9594d140 for instr_id 1006451
Prefetch db5d7a69a740 for instr_id 1006423
Prefetch 806c32e9e040 for instr_id 1006423
Prefetch 5060ec176840 for instr_id 1006450
Prefetch 8b917cd4d140 for instr_id 1006450
Prefetch bcd007ff140 for instr_id 1006618
Prefetch 6da6ccc19340 for instr_id 1006618
Prefetch edf506614240 for instr_id 1006619
Prefetch 73728f75a540 for instr_id 1006810
Prefetch 7cdf3dd4b940 for instr_id 1006811
Prefetch fdef777fe040 for instr_id 1006811
Prefetch aae8e888a240 for instr_id 1007053
Prefetch aae8e888aa40 for instr_id 1007053
Prefetch b4908a028740 for instr_id 1007070
Prefetch e369afc0b040 for instr_id 1007070
Prefetch daa4eca5d440 for instr_id 1007136
Prefetch 5ff0e938d040 for instr_id 1007136
Prefetch d188ca04d940 for instr_id 1007277
Prefetch f254027e4040 for instr_id 1007277
Prefetch 654a82bdd040 for instr_id 1007280
Prefetch 2c1638854440 for instr_id 1007280
Prefetch 2c1638854240 for instr_id 1007282
Prefetch a6226e62b140 for instr_id 1007282
Prefetch e8ff2e019440 for instr_id 1007291
Prefetch daa4ec8ed040 for instr_id 1007291
Prefetch e8ff2e012540 for instr_id 1007290
Prefetch 3d171a2b4940 for instr_id 1007410
Prefetch c08d11c35640 for instr_id 1007410
Prefetch d279e1dcf340 for instr_id 1007411
Prefetch c08d11c35240 for instr_id 1007411
Prefetch 9ed467a26040 for instr_id 1007602
Prefetch a29904f90540 for instr_id 1007602
Prefetch d13732b6e840 for instr_id 1007603
Prefetch 6f8c52168140 for instr_id 1007603
Prefetch d49df350d840 for instr_id 1007764
Prefetch d49df350d140 for instr_id 1007764
Prefetch 972ee37d2240 for instr_id 1007827
Prefetch 972ee37d2840 for instr_id 1007827
Prefetch 3a0c02ba240 for instr_id 1007828
Prefetch 9e2252445140 for instr_id 1007828
Prefetch df35ad272540 for instr_id 1008019
Prefetch df35ad272240 for instr_id 1008019
Prefetch df35ad272840 for instr_id 1008020
Prefetch 5b27efb8f140 for instr_id 1008020
Prefetch c146248ea140 for instr_id 1008211
Prefetch dbc1ab72f040 for instr_id 1008211
Prefetch 3d171a2d7840 for instr_id 1008212
Prefetch dde1a5105840 for instr_id 1008212
Prefetch c99d42af6680 for instr_id 1008280
Prefetch dc2696de4740 for instr_id 1008280
Prefetch 48325feb1340 for instr_id 1008478
Prefetch 7225c5b25140 for instr_id 1008478
Prefetch f669ef7c6040 for instr_id 1008493
Prefetch 37ee399be040 for instr_id 1008493
Prefetch 2034d7502340 for instr_id 1008494
Prefetch 2034d7502840 for instr_id 1008494
Prefetch 60e2cf02a440 for instr_id 1008511
Prefetch bc6240dcd640 for instr_id 1008542
Prefetch 371e0d5c9040 for instr_id 1008542
Prefetch 80ee6f870840 for instr_id 1008721
Prefetch c3e40fa2a140 for instr_id 1008721
Prefetch 99bfab102540 for instr_id 1008723
Prefetch 25f381597040 for instr_id 1008723
Prefetch 858482a1d340 for instr_id 1008725
Prefetch fb9e98d6f140 for instr_id 1008725
Prefetch d27094ea8540 for instr_id 1008732
Prefetch d27094ea8240 for instr_id 1008732
Prefetch 9e861f140940 for instr_id 1008816
Prefetch 9e861f140840 for instr_id 1008816
Prefetch 78b1779c8340 for instr_id 1008731
Prefetch 78b1779c8140 for instr_id 1008731
Prefetch 537b6e60a540 for instr_id 1008815
Prefetch b0e5b817b040 for instr_id 1008815
Prefetch fb4693dc2340 for instr_id 1009007
Prefetch fb4693dc2140 for instr_id 1009007
Prefetch f177c1433540 for instr_id 1009008
Prefetch f177c1433240 for instr_id 1009008
Prefetch 79a242ebc740 for instr_id 1009222
Prefetch f9e6f0a80440 for instr_id 1009222
Prefetch 40c1ec866040 for instr_id 1009232
Prefetch 84abfe63f140 for instr_id 1009232
Prefetch b5fe1c16d440 for instr_id 1009205
Prefetch a07d87dc3440 for instr_id 1009205
Prefetch 904477475840 for instr_id 1009233
Prefetch e9adcccd9140 for instr_id 1009233
Prefetch c57dc8f6d140 for instr_id 1009424
Prefetch 7cd507f5d340 for instr_id 1009424
Prefetch 6f8dd2580640 for instr_id 1009425
Prefetch 6f8dd2580240 for instr_id 1009425
Prefetch cccca91d3040 for instr_id 1009616
Prefetch cccca91d3140 for instr_id 1009616
Prefetch 7082896f2440 for instr_id 1009617
Prefetch 7082896f2140 for instr_id 1009617
Prefetch 557991d0f340 for instr_id 1009785
Prefetch 557991d0f040 for instr_id 1009785
Prefetch ed1ed88e2240 for instr_id 1009888
Prefetch 7da797d24140 for instr_id 1009888
Prefetch b56487174240 for instr_id 1009903
Prefetch b56487174440 for instr_id 1009903
Prefetch afd5fea42340 for instr_id 1009904
Prefetch 5b23087eb580 for instr_id 1009904
Prefetch 602f1541040 for instr_id 1009921
Prefetch 602f1541140 for instr_id 1009921
Prefetch d02d08fd540 for instr_id 1009952
Prefetch c19599b7b240 for instr_id 1010128
Prefetch 81eac2354040 for instr_id 1010128
Prefetch 98a950854480 for instr_id 1010130
Prefetch 720ff30b4140 for instr_id 1010130
Prefetch c1c1997fc040 for instr_id 1010132
Prefetch c1c1997fc440 for instr_id 1010132
Prefetch cd86f35c8640 for instr_id 1010139
Prefetch a528d48cf240 for instr_id 1010223
Prefetch a88c5e4c6040 for instr_id 1010223
Prefetch b0801a270440 for instr_id 1010138
Prefetch 32af17b34940 for instr_id 1010138
Prefetch 70d1522d1140 for instr_id 1010222
Prefetch 4a3213e79740 for instr_id 1010222
Prefetch 371e0d49c440 for instr_id 1010414
Prefetch 371e0d49c240 for instr_id 1010414
Prefetch 6d2c365bb540 for instr_id 1010415
Prefetch e097296c2240 for instr_id 1010606
Prefetch e097296c2940 for instr_id 1010606
Prefetch 720ff3179940 for instr_id 1010612
Prefetch 373f299ad780 for instr_id 1010612
Prefetch ef73f3e1a240 for instr_id 1010742
Prefetch c3e40f9a6140 for instr_id 1010742
Prefetch fca86e80c540 for instr_id 1010759
Prefetch 9c7e5f63f140 for instr_id 1010759
Prefetch 154d5d2b5140 for instr_id 1010825
Prefetch 6546b249e240 for instr_id 1010825
Prefetch 8dde71b20240 for instr_id 1010966
Prefetch f1e9cdf7f140 for instr_id 1010976
Prefetch f1e9cdf7f440 for instr_id 1010976
Prefetch 7f032e935240 for instr_id 1011024
Prefetch f580d2d72640 for instr_id 1011024
Prefetch f1e9cdf7f140 for instr_id 1010977
Prefetch c3e40fa7b240 for instr_id 1010977
Prefetch 972ee3781440 for instr_id 1011025
Prefetch 972ee3781340 for instr_id 1011025
Prefetch d4815269c240 for instr_id 1011216
Prefetch 6181f92d7740 for instr_id 1011217
Prefetch 583ff13e4940 for instr_id 1011217
Prefetch b57f7fe88040 for instr_id 1011408
Prefetch 6be72c439440 for instr_id 1011408
Prefetch 7a76be8f3240 for instr_id 1011409
Prefetch b57f7fe88040 for instr_id 1011409
Prefetch c6a3011f7540 for instr_id 1011587
Prefetch 82fb630cb040 for instr_id 1011587
Prefetch 482f3c7aa240 for instr_id 1011603
Prefetch cec659e45040 for instr_id 1011603
Prefetch 6546b246c340 for instr_id 1011620
Prefetch eee792516740 for instr_id 1011620
Prefetch a384a1e3f240 for instr_id 1011686
Prefetch a384a1e3f440 for instr_id 1011686
Prefetch 1a22aa13b640 for instr_id 1011833
Prefetch 36da8a07a140 for instr_id 1011833
Prefetch 76102e68a240 for instr_id 1011835
Prefetch 1a22aa13b040 for instr_id 1011835
Prefetch 3d8fec640 for instr_id 1011837
Prefetch 9b6d0e44e740 for instr_id 1011837
Prefetch ab542ee7a040 for instr_id 1011844
Prefetch 3888d85db940 for instr_id 1011844
Prefetch df6a7eb45240 for instr_id 1011892
Prefetch f112cade1040 for instr_id 1011892
Prefetch b81153577740 for instr_id 1011843
Prefetch b7610068b140 for instr_id 1011843
Prefetch 9a8529ad6380 for instr_id 1011891
Prefetch 3630954fc240 for instr_id 1011891
Prefetch 80fcb7a66340 for instr_id 1012083
Prefetch fca86e81d140 for instr_id 1012083
Prefetch 832fe6624140 for instr_id 1012084
Prefetch 93c110447540 for instr_id 1012084
Prefetch 3e3e9af71a40 for instr_id 1012275
Prefetch b431391a0240 for instr_id 1012275
Prefetch c7cd81990140 for instr_id 1012276
Prefetch 7240021ad640 for instr_id 1012276
Prefetch a05b48624540 for instr_id 1012317
Prefetch e3dd61187140 for instr_id 1012500
Prefetch 637351081740 for instr_id 1012500
Prefetch 3a5ef1232540 for instr_id 1012501
Prefetch 856e16c77840 for instr_id 1012692
Prefetch 6be72c496140 for instr_id 1012692
Prefetch db5d7a677640 for instr_id 1012693
Prefetch 6be72c496740 for instr_id 1012693
Prefetch c050d35c9140 for instr_id 1012844
Prefetch bba2dd036740 for instr_id 1012844
Prefetch 966b723c6540 for instr_id 1012925
Prefetch a2cdad398640 for instr_id 1012925
Prefetch 4e907ed4640 for instr_id 1012924
Prefetch f7587c717240 for instr_id 1013116
Prefetch 3a15a5a78140 for instr_id 1013116
Prefetch cec659dfc340 for instr_id 1013117
Prefetch cec659dfc140 for instr_id 1013117
Prefetch 4548fdb82140 for instr_id 1013308
Prefetch 1e03d1a32540 for instr_id 1013308
Prefetch e23464297740 for instr_id 1013309
Prefetch e23464297040 for instr_id 1013309
Prefetch d188ca151240 for instr_id 1013340
Prefetch be8f360a9140 for instr_id 1013340
Prefetch 93e498b21140 for instr_id 1013469
Prefetch 230c3712f640 for instr_id 1013469
Prefetch 516e6503d640 for instr_id 1013485
Prefetch 4f0092e62740 for instr_id 1013485
Prefetch 28b21d647040 for instr_id 1013502
Prefetch 3888d85cd040 for instr_id 1013502
Prefetch 52fde3b78240 for instr_id 1013568
Prefetch 2ce963b2d040 for instr_id 1013568
Prefetch c1b46ee4fc40 for instr_id 1013718
Prefetch c1b46ee4f940 for instr_id 1013718
Prefetch b564870fc640 for instr_id 1013715
Prefetch c76fd77d7940 for instr_id 1013715
Prefetch c50708286440 for instr_id 1013717
Prefetch 6be72c53a940 for instr_id 1013717
Prefetch 6546b251d440 for instr_id 1013719
Prefetch c1b46ee4f940 for instr_id 1013719
Prefetch 471eb52ad240 for instr_id 1013726
Prefetch 51bc05943040 for instr_id 1013726
Prefetch 5458246ef340 for instr_id 1013725
Prefetch 6b69b9f03740 for instr_id 1013725
Prefetch 4376c2b1c940 for instr_id 1013881
Prefetch 8fae29f99240 for instr_id 1013881
Prefetch dfdd963f7140 for instr_id 1013882
Prefetch dfdd963f7940 for instr_id 1013882
Prefetch de4f50a3240 for instr_id 1014073
Prefetch de4f50aa340 for instr_id 1014074
Prefetch de4f50aa940 for instr_id 1014074
Prefetch 602b674a9140 for instr_id 1014218
Prefetch 602b674a9440 for instr_id 1014218
Prefetch 4594b5ebd440 for instr_id 1014299
Prefetch 78b177955040 for instr_id 1014299
Prefetch 2a3547aa9140 for instr_id 1014199
Prefetch 8ab21b8fc940 for instr_id 1014199
Prefetch 2f42b34ae540 for instr_id 1014298
Prefetch 2f42b34ae940 for instr_id 1014298
Prefetch dc45367d5240 for instr_id 1014490
Prefetch 58d193a4d040 for instr_id 1014490
Prefetch a4e2667d2940 for instr_id 1014491
Prefetch 483f3b6f3980 for instr_id 1014491
Prefetch 1a5da8bbf140 for instr_id 1014682
Prefetch 9a650eb14240 for instr_id 1014682
Prefetch 5eb3c2524240 for instr_id 1014683
Prefetch a12cf16a1140 for instr_id 1014913
Prefetch 45b7d4268440 for instr_id 1014914
Prefetch 6546b247f240 for instr_id 1014914
Prefetch 6b88cc39b240 for instr_id 1015105
Prefetch 6184ad9b0240 for instr_id 1015106
Prefetch 6184ad9b0940 for instr_id 1015106
Prefetch 6cc9f5204340 for instr_id 1015221
Prefetch 441b1545d940 for instr_id 1015221
Prefetch 82f9c058a240 for instr_id 1015275
Prefetch 3888d85cd940 for instr_id 1015275
Prefetch 1e77e7f1480 for instr_id 1015343
Prefetch 5108d33d3740 for instr_id 1015343
Prefetch fefee077b040 for instr_id 1015391
Prefetch 27c5e6ef1540 for instr_id 1015391
Prefetch 77d6c1961740 for instr_id 1015567
Prefetch 28b21d64d040 for instr_id 1015569
Prefetch 26f8c49da340 for instr_id 1015569
Prefetch bc71ea015740 for instr_id 1015571
Prefetch bc71ea015940 for instr_id 1015571
Prefetch 7f12e71e1740 for instr_id 1015578
Prefetch dab804fa9140 for instr_id 1015578
Prefetch f244354c5340 for instr_id 1015577
Prefetch f2443557c180 for instr_id 1015709
Prefetch 6b88cc382840 for instr_id 1015709
Prefetch 76c569974540 for instr_id 1015710
Prefetch 6b88cc382340 for instr_id 1015710
Prefetch ecfc730d4940 for instr_id 1015901
Prefetch fe84a3eeb140 for instr_id 1015901
Prefetch 3ea65cf80940 for instr_id 1015902
Prefetch 262e01e9c240 for instr_id 1015902
Prefetch 358f6ab5f540 for instr_id 1016051
Prefetch 358f6ab5f440 for instr_id 1016051
Prefetch 3d3ba1a12340 for instr_id 1016211
Prefetch 504afe0cd180 for instr_id 1016211
Prefetch b8480f2cd240 for instr_id 1016226
Prefetch 279bf8eb940 for instr_id 1016226
Prefetch b8480f2cd440 for instr_id 1016227
Prefetch 7f032e8c3340 for instr_id 1016227
Prefetch e13db91a3340 for instr_id 1016244
Prefetch 5a942f5ae440 for instr_id 1016244
Prefetch f58dc2619440 for instr_id 1016310
Prefetch 29d25cfe7840 for instr_id 1016310
Prefetch fa8b44d8d140 for instr_id 1016451
Prefetch 67269cdaa540 for instr_id 1016451
Prefetch 7f12e7056440 for instr_id 1016453
Prefetch 662218ae2940 for instr_id 1016453
Prefetch 643530d00580 for instr_id 1016455
Prefetch 4ebdce9fe340 for instr_id 1016455
Prefetch 45cb3d0a7940 for instr_id 1016462
Prefetch fb3f6a9a5480 for instr_id 1016462
Prefetch 6546b252f140 for instr_id 1016474
Prefetch 441b15436540 for instr_id 1016474
Prefetch f988c46e2340 for instr_id 1016461
Prefetch ebb5e4a6b180 for instr_id 1016473
Prefetch eee792478540 for instr_id 1016473
Prefetch 3c085cb24040 for instr_id 1016665
Prefetch 3c085cb24140 for instr_id 1016665
Prefetch dbc1ab603840 for instr_id 1016666
Prefetch 53bbae67f240 for instr_id 1016666
Prefetch ecfc73069340 for instr_id 1016857
Prefetch 11b76509c140 for instr_id 1016857
Prefetch 2feb0bd17140 for instr_id 1016858
Prefetch 93d86b7a6880 for instr_id 1016858
Prefetch ea44460a8840 for instr_id 1016935
Prefetch 55da13347340 for instr_id 1017084
Prefetch 67c384f8f040 for instr_id 1017084
Prefetch 67c384f7c140 for instr_id 1017164
Prefetch c146249a0040 for instr_id 1017164
Prefetch 148c9b865940 for instr_id 1017180
Prefetch eae47fd30640 for instr_id 1017180
Prefetch cebcd1fa2140 for instr_id 1017197
Prefetch c0b16fee940 for instr_id 1017197
Prefetch 20fdbdd5d240 for instr_id 1017263
Prefetch 1162cc93b940 for instr_id 1017263
Prefetch 7470cde6340 for instr_id 1017401
Prefetch ae1b3df56940 for instr_id 1017401
Prefetch 1b87b0dc5340 for instr_id 1017404
Prefetch 42f7b5147940 for instr_id 1017404
Prefetch c3e40fa1b440 for instr_id 1017406
Prefetch ae571c66c340 for instr_id 1017406
Prefetch 7f032e8c3380 for instr_id 1017408
Prefetch 2eda060fc740 for instr_id 1017408
Prefetch 6dcd43dfc040 for instr_id 1017415
Prefetch cd81871d2240 for instr_id 1017415
Prefetch afe487d0f440 for instr_id 1017511
Prefetch 76c569a4f340 for instr_id 1017511
Prefetch 641cb1527740 for instr_id 1017414
Prefetch 641cb1527140 for instr_id 1017414
Prefetch 49ba3ffd1140 for instr_id 1017510
Prefetch 25557c7db680 for instr_id 1017510
Prefetch b9a3e4a49340 for instr_id 1017702
Prefetch 176d85579540 for instr_id 1017703
Prefetch a10d2425c940 for instr_id 1017703
Prefetch 1b9dfd5c840 for instr_id 1017888
Prefetch 87d2c7793580 for instr_id 1017888
Prefetch afce0a27c840 for instr_id 1018025
Prefetch bc3a44bf5940 for instr_id 1018025
Prefetch 13355c3a7440 for instr_id 1018040
Prefetch 76c569a3d940 for instr_id 1018040
Prefetch db191b24440 for instr_id 1018041
Prefetch c3e40fa1b840 for instr_id 1018041
Prefetch ba9403abe740 for instr_id 1018058
Prefetch 7db1511b3740 for instr_id 1018058
Prefetch ebdfa9515740 for instr_id 1018124
Prefetch 5d403efb7140 for instr_id 1018124
Prefetch ca5907b7e240 for instr_id 1018271
Prefetch c3e40f9ff040 for instr_id 1018271
Prefetch 28b21d68f140 for instr_id 1018273
Prefetch f0de6a775940 for instr_id 1018273
Prefetch 533e6be1e140 for instr_id 1018275
Prefetch 533e6be1e940 for instr_id 1018275
Prefetch 725df4a59340 for instr_id 1018282
Prefetch 1b5ef19d3740 for instr_id 1018282
Prefetch 3d1c60f59140 for instr_id 1018281
Prefetch 3d1c60f59940 for instr_id 1018281
Prefetch 2a2640df5940 for instr_id 1018353
Prefetch 726519d9a980 for instr_id 1018353
Prefetch f669ef751240 for instr_id 1018354
Prefetch 726519d9a240 for instr_id 1018354
Prefetch a661c5c60240 for instr_id 1018545
Prefetch 3a0376a4640 for instr_id 1018545
Prefetch 5ff0e943d440 for instr_id 1018546
Prefetch bc71ea04a540 for instr_id 1018546
Prefetch 829d02643080 for instr_id 1018737
Prefetch 1a1d7a58f340 for instr_id 1018737
Prefetch 6da1dbfbe540 for instr_id 1018738
Prefetch 6da1dbfbe940 for instr_id 1018738
Prefetch 23024ede9140 for instr_id 1018772
Prefetch 98b62aeb2880 for instr_id 1018772
Prefetch c3e083fb9240 for instr_id 1018782
Prefetch a360d7396440 for instr_id 1018782
Prefetch 98b62aeea640 for instr_id 1018783
Prefetch 221b7a031580 for instr_id 1018783
Prefetch 6d95bdacc240 for instr_id 1018878
Prefetch 6d95bdacc140 for instr_id 1018878
Prefetch e1dda7a41540 for instr_id 1018879
Prefetch 363095581340 for instr_id 1018879
Prefetch 3738d6422340 for instr_id 1019070
Prefetch 3738d6422140 for instr_id 1019070
Prefetch ac885812a140 for instr_id 1019071
Prefetch da1dbf9f9880 for instr_id 1019071
Prefetch 29d25d162440 for instr_id 1019256
Prefetch 8e9751f53740 for instr_id 1019256
Prefetch 701bbbaff340 for instr_id 1019271
Prefetch afd5fea17240 for instr_id 1019302
Prefetch 238d286e1740 for instr_id 1019302
Prefetch e65721418340 for instr_id 1019303
Prefetch 238d286e1040 for instr_id 1019303
Prefetch fb3f6aa15240 for instr_id 1019494
Prefetch 29d25cfeb240 for instr_id 1019494
Prefetch a07d87d2e240 for instr_id 1019495
Prefetch 663201b4a440 for instr_id 1019495
Prefetch 95baac8f840 for instr_id 1019686
Prefetch 353094c92340 for instr_id 1019686
Prefetch 551a68180440 for instr_id 1019687
Prefetch 551a68180340 for instr_id 1019687
Prefetch bdba43156740 for instr_id 1019778
Prefetch cec659ea1340 for instr_id 1019778
Prefetch afd5fea09180 for instr_id 1019900
Prefetch 172c951a8340 for instr_id 1019900
Prefetch 27e32b0fb480 for instr_id 1019948
Prefetch 27e32b0fb040 for instr_id 1019948
Prefetch f669ef819740 for instr_id 1020128
Prefetch ff322e043340 for instr_id 1020128
Prefetch 4e2c6f286740 for instr_id 1020127
Prefetch 9fa361305340 for instr_id 1020127
Prefetch 9fa361305340 for instr_id 1020129
Prefetch 5cb41dc5e140 for instr_id 1020129
Prefetch 3d3ba1918740 for instr_id 1020131
Prefetch ef73f3ecd340 for instr_id 1020131
Prefetch d8f525ace340 for instr_id 1020138
Prefetch d8f525ace140 for instr_id 1020138
Prefetch d2534c5ea480 for instr_id 1020137
Prefetch d2534c5ea040 for instr_id 1020137
Prefetch ef5d264d9680 for instr_id 1020329
Prefetch bdba43134640 for instr_id 1020329
Prefetch a6226e696840 for instr_id 1020330
Prefetch fb4693c6b040 for instr_id 1020521
Prefetch 1f9fd7106040 for instr_id 1020521
Prefetch 7cdf3de6a540 for instr_id 1020522
Prefetch b1a2c64b0340 for instr_id 1020522
Prefetch ae1b3de53740 for instr_id 1020638
Prefetch 148c9b889140 for instr_id 1020638
Prefetch d469c7aa140 for instr_id 1020639
Prefetch fe3847648640 for instr_id 1020770
Prefetch 1b9dfd90040 for instr_id 1020771
Prefetch fe3847648440 for instr_id 1020771
Prefetch f4ed3bdc3340 for instr_id 1020962
Prefetch f4ed3bdc3640 for instr_id 1020962
Prefetch f4ed3bdc3440 for instr_id 1020963
Prefetch 45b5bf256140 for instr_id 1020963
Prefetch 143d3a711640 for instr_id 1021126
Prefetch 78fe850e7140 for instr_id 1021126
Prefetch f5e038ed1140 for instr_id 1021248
Prefetch 30829c5c7680 for instr_id 1021248
Prefetch ca5907bc7440 for instr_id 1021265
Prefetch ab04c5aa8940 for instr_id 1021265
Prefetch bdf320a83940 for instr_id 1021331
Prefetch bffd330cf340 for instr_id 1021331
Prefetch 6546b251f340 for instr_id 1021472
Prefetch 3a15a5941340 for instr_id 1021472
Prefetch fcd4effc3540 for instr_id 1021474
Prefetch fcd4effc3140 for instr_id 1021474
Prefetch 2abfc4fdf140 for instr_id 1021483
Prefetch 6276c5f53440 for instr_id 1021483
Prefetch 4bf576060140 for instr_id 1021482
Prefetch 523c7f3a9140 for instr_id 1021482
Prefetch 6e7e2d0d5540 for instr_id 1021518
Prefetch 90d3c2d18340 for instr_id 1021518
Prefetch 9686ccae9640 for instr_id 1021519
Prefetch 9686ccae9480 for instr_id 1021519
Prefetch af1f0e6d2640 for instr_id 1021710
Prefetch f57e6c01c940 for instr_id 1021710
Prefetch afd5fea53340 for instr_id 1021711
Prefetch af1f0e6d2240 for instr_id 1021711
Prefetch 7c7487ba1940 for instr_id 1021902
Prefetch 22c2ae6cf340 for instr_id 1021902
Prefetch f4841d50c040 for instr_id 1021903
Prefetch f4841d50c440 for instr_id 1021903
Prefetch f1e725155740 for instr_id 1021956
Prefetch a4ee16a09140 for instr_id 1022070
Prefetch 3d8f17340 for instr_id 1022070
Prefetch 602b6746e340 for instr_id 1022086
Prefetch 25b1fb014540 for instr_id 1022086
Prefetch 32d92daec540 for instr_id 1022134
Prefetch 32d92daec140 for instr_id 1022134
Prefetch 28b21d64d440 for instr_id 1022310
Prefetch 1267c420e840 for instr_id 1022310
Prefetch 581d4f41140 for instr_id 1022312
Prefetch 9ea8c7df5940 for instr_id 1022312
Prefetch 581d4f41340 for instr_id 1022314
Prefetch ea2fa85a4940 for instr_id 1022321
Prefetch 3a0c047d480 for instr_id 1022321
Prefetch 2adeb9382340 for instr_id 1022429
Prefetch f58dc258c340 for instr_id 1022320
Prefetch e6cff9d54240 for instr_id 1022320
Prefetch 28b21d701440 for instr_id 1022428
Prefetch df9004cbb840 for instr_id 1022428
Prefetch 656e0f3a9940 for instr_id 1022620
Prefetch 280466ebf640 for instr_id 1022620
Prefetch afd5fea61780 for instr_id 1022621
Prefetch 280466ebf740 for instr_id 1022621
Prefetch b1272008a140 for instr_id 1022954
Prefetch 653b2a16f040 for instr_id 1022954
Prefetch 77ed561f4140 for instr_id 1022970
Prefetch a6c295a5d840 for instr_id 1022970
Prefetch cd25fe103640 for instr_id 1022987
Prefetch 7137e5fed140 for instr_id 1022987
Prefetch 5de0e86b7640 for instr_id 1023053
Prefetch b0357cff1140 for instr_id 1023053
Prefetch 849e2c55f740 for instr_id 1023197
Prefetch 849e2c55f140 for instr_id 1023197
Prefetch 4d57c7950140 for instr_id 1023200
Prefetch 1c17a5245680 for instr_id 1023200
Prefetch 26f4ddb76140 for instr_id 1023202
Prefetch 220533d5b440 for instr_id 1023202
Prefetch 9cba7fa21040 for instr_id 1023204
Prefetch 9cba7fa21540 for instr_id 1023204
Prefetch 18ae35591340 for instr_id 1023211
Prefetch 4b6f67bd7740 for instr_id 1023211
Prefetch b12720068240 for instr_id 1023210
Prefetch 4b6f67bd7540 for instr_id 1023210
Prefetch 55da1329c740 for instr_id 1023366
Prefetch b29d4c7f9840 for instr_id 1023367
Prefetch f6ba197a3340 for instr_id 1023367
Prefetch 8cd05ec56840 for instr_id 1023558
Prefetch dc8732996040 for instr_id 1023559
Prefetch 8e9751e56340 for instr_id 1023559
Prefetch b0801a21e240 for instr_id 1023701
Prefetch 82e7745f3740 for instr_id 1023703
Prefetch 51fd1916d340 for instr_id 1023703
Prefetch f84d6c4db740 for instr_id 1023684
Prefetch f84d6c4db140 for instr_id 1023684
Prefetch d316aaf97440 for instr_id 1023712
Prefetch 6b69b9f5e140 for instr_id 1023712
Prefetch fbc8a82aa140 for instr_id 1023808
Prefetch 3d90fe340 for instr_id 1023808
Prefetch 444c92b1e440 for instr_id 1023711
Prefetch d316aaf97640 for instr_id 1023711
Prefetch fbc8a82aa440 for instr_id 1023807
Prefetch 40c87abd3140 for instr_id 1023807
Prefetch aa8227089140 for instr_id 1023999
Prefetch 932a8c3e7940 for instr_id 1023999
Prefetch e6cff9d71640 for instr_id 1024000
Prefetch 4da16958b240 for instr_id 1024000
Prefetch 4f0092ee6040 for instr_id 1024185
Prefetch b0801a21e840 for instr_id 1024212
Prefetch 31e9932f4340 for instr_id 1024212
Prefetch cf74039e3840 for instr_id 1024213
Prefetch 3a5ef1213440 for instr_id 1024213
Prefetch 7cdf3dca5140 for instr_id 1024248
Prefetch 7cdf3dca5040 for instr_id 1024248
Prefetch 1fc188e03440 for instr_id 1024249
Prefetch 37ee39a0f140 for instr_id 1024249
Prefetch bf1a7fef6040 for instr_id 1024440
Prefetch bf1a7fef6440 for instr_id 1024440
Prefetch 73728f775140 for instr_id 1024441
Prefetch f6368e5f9640 for instr_id 1024441
Prefetch d758ef13f740 for instr_id 1024632
Prefetch d758ef13f940 for instr_id 1024632
Prefetch 3f20f62d3140 for instr_id 1024633
Prefetch 3d8fc6840 for instr_id 1024633
Prefetch 5d4277c65940 for instr_id 1024822
Prefetch 148c9b701940 for instr_id 1024822
Prefetch 29d25d08a340 for instr_id 1024823
Prefetch 5d4277c65740 for instr_id 1024823
Prefetch d36d4980a440 for instr_id 1024871
Prefetch eae47fd94240 for instr_id 1024871
Prefetch a661c5bd1040 for instr_id 1025047
Prefetch 76c569a5c940 for instr_id 1025049
Prefetch 5c426c3d0240 for instr_id 1025049
Prefetch d5966ef55240 for instr_id 1025051
Prefetch d5966ef55940 for instr_id 1025051
Prefetch 725df4a45140 for instr_id 1025058
Prefetch 849e2c569740 for instr_id 1025058
Prefetch ea3d4d9a3240 for instr_id 1025057
Prefetch ea3d4d9a3940 for instr_id 1025057
Prefetch 684b7a226040 for instr_id 1025249
Prefetch df9004b62280 for instr_id 1025249
Prefetch 6b69b9ea8480 for instr_id 1025250
Prefetch 6b69b9ea8440 for instr_id 1025250
Prefetch 30c05543b040 for instr_id 1025441
Prefetch 522aa2239640 for instr_id 1025442
Prefetch 522aa2239940 for instr_id 1025442
Prefetch 3868d366a040 for instr_id 1025525
Prefetch 5be091cfa280 for instr_id 1025525
Prefetch dea1fd70f340 for instr_id 1025661
Prefetch dea1fd70f040 for instr_id 1025661
Prefetch 73e22d89f340 for instr_id 1025678
Prefetch 4a7052dc3440 for instr_id 1025678
Prefetch 29d25d01c040 for instr_id 1025744
Prefetch 8c65a480b440 for instr_id 1025744
Prefetch 997e49ac8840 for instr_id 1025885
Prefetch 5d0998996340 for instr_id 1025885
Prefetch 544164154140 for instr_id 1025887
Prefetch 544164154940 for instr_id 1025887
Prefetch f03dfdc71480 for instr_id 1025896
Prefetch f03dfdc71440 for instr_id 1025896
Prefetch 60036ad81280 for instr_id 1025932
Prefetch aa4690372440 for instr_id 1025932
Prefetch a6bf2c39b440 for instr_id 1025895
Prefetch d9b015eea280 for instr_id 1025895
Prefetch b12720036240 for instr_id 1025931
Prefetch aa4690372340 for instr_id 1025931
Prefetch 8dbf5d4de440 for instr_id 1026123
Prefetch 9daea8189180 for instr_id 1026123
Prefetch 29ba9f31a140 for instr_id 1026124
Prefetch 441b1547e340 for instr_id 1026315
Prefetch 441b1547e440 for instr_id 1026315
Prefetch 441b1547e740 for instr_id 1026316
Prefetch ed6d63d14140 for instr_id 1026316
Prefetch ecc9b2a4b140 for instr_id 1026369
Prefetch d018484ee740 for instr_id 1026369
Prefetch c050d36b3180 for instr_id 1026499
Prefetch fca86e952740 for instr_id 1026499
Prefetch 3d603977f740 for instr_id 1026547
Prefetch 38f8bf858340 for instr_id 1026547
Prefetch b6b0038f8080 for instr_id 1026724
Prefetch 79a30622c480 for instr_id 1026724
Prefetch 211ffbfbe240 for instr_id 1026725
Prefetch f4e0679d0940 for instr_id 1026725
Prefetch af8f288d8440 for instr_id 1026727
Prefetch 444c92aea040 for instr_id 1026727
Prefetch 230b2599e480 for instr_id 1026734
Prefetch 230b2599e440 for instr_id 1026734
Prefetch 8d6cd6363040 for instr_id 1026733
Prefetch 7c7487bbe740 for instr_id 1026733
Prefetch 40c87ac04340 for instr_id 1026901
Prefetch 77d6c1903440 for instr_id 1026901
Prefetch 1b4df1ff1040 for instr_id 1026902
Prefetch 6a3e4f962140 for instr_id 1026902
Prefetch fa8b44d89940 for instr_id 1027093
Prefetch 2a8484d1e740 for instr_id 1027093
Prefetch dc95e820a440 for instr_id 1027094
Prefetch 1e3366c340 for instr_id 1027337
Prefetch 1e3366c440 for instr_id 1027337
Prefetch f71f8d9f7940 for instr_id 1027354
Prefetch f4ed3bc29340 for instr_id 1027354
Prefetch 7c9a3e7d8040 for instr_id 1027420
Prefetch b9e534591940 for instr_id 1027420
Prefetch b43048ec2440 for instr_id 1027570
Prefetch 76c569a3d340 for instr_id 1027570
Prefetch 1be7601fc440 for instr_id 1027580
Prefetch a48a209d8240 for instr_id 1027581
Prefetch a48a209d8940 for instr_id 1027581
Prefetch 23f7f30fb340 for instr_id 1027736
Prefetch 23f7f30fb940 for instr_id 1027736
Prefetch 28b21d64d440 for instr_id 1027737
Prefetch ae09dd842840 for instr_id 1027737
Prefetch 2a8484d19440 for instr_id 1027928
Prefetch 4958dfb7b940 for instr_id 1027929
Prefetch 79a242d8f340 for instr_id 1027929
Prefetch cd2270bf3340 for instr_id 1028073
Prefetch cd2270bf3440 for instr_id 1028073
Prefetch 84d6f9726940 for instr_id 1028154
Prefetch 84d6f9726640 for instr_id 1028154
Prefetch e2a4357c6840 for instr_id 1028153
Prefetch e2a4357c6940 for instr_id 1028153
Prefetch a07d87cff440 for instr_id 1028345
Prefetch f84d6c669040 for instr_id 1028345
Prefetch 17a1ca30e440 for instr_id 1028346
Prefetch 9b6576419040 for instr_id 1028537
Prefetch 8791c68dd440 for instr_id 1028537
Prefetch 38539b66f140 for instr_id 1028538
Prefetch c6cc9e35d240 for instr_id 1028538
Prefetch 52a072f8d440 for instr_id 1028579
Prefetch 29d25d042640 for instr_id 1028579
Prefetch 775748563440 for instr_id 1028589
Prefetch ed1220774140 for instr_id 1028601
Prefetch 26f4ddb8f340 for instr_id 1028590
Prefetch 26f4ddb8f940 for instr_id 1028590
Prefetch fadfd9499340 for instr_id 1028602
Prefetch fadfd9499440 for instr_id 1028602
Prefetch 537b6e672540 for instr_id 1028793
Prefetch a37d95811540 for instr_id 1028794
Prefetch a37d95811940 for instr_id 1028794
Prefetch c050d363e140 for instr_id 1028985
Prefetch 6da6ccc8a640 for instr_id 1028985
Prefetch 9e6c0be63440 for instr_id 1028986
Prefetch cebbfbc77140 for instr_id 1029063
Prefetch 8d42198a0240 for instr_id 1029063
Prefetch df32db7fc440 for instr_id 1029078
Prefetch 8b2c1a54b040 for instr_id 1029078
Prefetch d9d098846940 for instr_id 1029217
Prefetch e4bb448c9440 for instr_id 1029217
Prefetch e4bb448c9640 for instr_id 1029218
Prefetch 747133444140 for instr_id 1029218
Prefetch 1f57ebc53140 for instr_id 1029409
Prefetch 52a0730ca440 for instr_id 1029410
Prefetch 52a0730ca040 for instr_id 1029410
Prefetch fa8b44dc1740 for instr_id 1029692
Prefetch f5367d694140 for instr_id 1029692
Prefetch afe4cbc63140 for instr_id 1029708
Prefetch 537b6e632240 for instr_id 1029756
Prefetch 371e0d3de440 for instr_id 1029932
Prefetch 3269c533d140 for instr_id 1029932
Prefetch c11218679640 for instr_id 1029934
Prefetch 60f67b499140 for instr_id 1029934
Prefetch f9e6f0a46440 for instr_id 1029936
Prefetch bc71ea04a240 for instr_id 1029936
Prefetch f4aa868b3740 for instr_id 1029943
Prefetch 6546b247f740 for instr_id 1029942
Prefetch 7ece44865140 for instr_id 1029942
Prefetch 2d70d6b0a140 for instr_id 1030050
Prefetch df0d560ff440 for instr_id 1030051
Prefetch 32af17b83540 for instr_id 1030051
Prefetch d7f286bc0940 for instr_id 1030242
Prefetch 701bbba35140 for instr_id 1030243
Prefetch 5ce0ef30c940 for instr_id 1030243
Prefetch f6ba196af240 for instr_id 1030546
Prefetch afd5feabb240 for instr_id 1030546
Prefetch c34dc62b1240 for instr_id 1030563
Prefetch 71ad85c7b440 for instr_id 1030629
Prefetch 6546b24a2140 for instr_id 1030629
Prefetch b6cff458240 for instr_id 1030776
Prefetch afd5fea61740 for instr_id 1030776
Prefetch bc71ea04a540 for instr_id 1030773
Prefetch 25dff305f240 for instr_id 1030773
Prefetch b6cff458640 for instr_id 1030775
Prefetch b6cff458940 for instr_id 1030775
Prefetch 5dc0ed8dc440 for instr_id 1030784
Prefetch 58a70ffcf140 for instr_id 1030880
Prefetch 49ba40028240 for instr_id 1030880
Prefetch dc95e8230440 for instr_id 1030783
Prefetch 85dc53783040 for instr_id 1030783
Prefetch f00ef4e40440 for instr_id 1030879
Prefetch 9a049119c940 for instr_id 1031071
Prefetch 807422976940 for instr_id 1031071
Prefetch b1272006b940 for instr_id 1031072
Prefetch 9a049119c340 for instr_id 1031072
Prefetch 6b088b5d6240 for instr_id 1031284
Prefetch 71c296fbf940 for instr_id 1031284
Prefetch 3d90f1340 for instr_id 1031285
Prefetch 6b088b5d6640 for instr_id 1031285
Prefetch 4fe37efc5440 for instr_id 1031404
Prefetch 60036adf1040 for instr_id 1031404
Prefetch b55bd04f4440 for instr_id 1031405
Prefetch 537b6e6da040 for instr_id 1031596
Prefetch 59812dbb3140 for instr_id 1031597
Prefetch 583ff13c6540 for instr_id 1031597
Prefetch 2fc11e27440 for instr_id 1031822
Prefetch 6546b250d040 for instr_id 1031822
Prefetch a3fa79e78140 for instr_id 1031918
Prefetch 63783ee94640 for instr_id 1031935
Prefetch 63783ee94140 for instr_id 1031935
Prefetch c3e40fa14140 for instr_id 1032001
Prefetch 23ae74ad0640 for instr_id 1032001
Prefetch 58a4b4604440 for instr_id 1032139
Prefetch c9d96eb8640 for instr_id 1032139
Prefetch e759ffd78640 for instr_id 1032142
Prefetch e759ffd78140 for instr_id 1032142
Prefetch 89ab22312440 for instr_id 1032144
Prefetch 76c569956940 for instr_id 1032144
Prefetch f5e038f67140 for instr_id 1032146
Prefetch fa8b44da2640 for instr_id 1032153
Prefetch 7f1d1b81540 for instr_id 1032153
Prefetch ebe2b0ea8140 for instr_id 1032189
Prefetch 7f1d1b81140 for instr_id 1032152
Prefetch 5e3fc119c940 for instr_id 1032152
Prefetch 576a7a70e640 for instr_id 1032188
Prefetch 576a7a70e140 for instr_id 1032188
Prefetch 76c569a31240 for instr_id 1032380
Prefetch 691379d8f540 for instr_id 1032380
Prefetch 953fa6e29140 for instr_id 1032381
Prefetch 18ae3551a640 for instr_id 1032572
Prefetch 18ae3551a940 for instr_id 1032572
Prefetch 6d2c36513440 for instr_id 1032573
Prefetch 399bcf167640 for instr_id 1032573
Prefetch be8f3612f540 for instr_id 1032626
Prefetch c050d3579140 for instr_id 1032626
Prefetch 533e6be34840 for instr_id 1032763
Prefetch 7aa2a7d7d940 for instr_id 1032763
Prefetch 84d6f9870440 for instr_id 1032778
Prefetch 29d25cffa540 for instr_id 1032778
Prefetch 32af17c1a040 for instr_id 1032779
Prefetch d44ddd651340 for instr_id 1032779
Prefetch f9e3b081d640 for instr_id 1032796
Prefetch f9e3b081d140 for instr_id 1032796
Prefetch 6d2c365b9540 for instr_id 1032862
Prefetch 55a7e2679640 for instr_id 1032862
Prefetch c19599c86640 for instr_id 1033003
Prefetch c19599c86140 for instr_id 1033003
Prefetch 656e0f2a9440 for instr_id 1033005
Prefetch 656e0f2a9040 for instr_id 1033005
Prefetch 60036adde940 for instr_id 1033007
Prefetch 26f8c49ba140 for instr_id 1033007
Prefetch e13db917c040 for instr_id 1033014
Prefetch 7370bab84640 for instr_id 1033014
Prefetch b1d56e29c540 for instr_id 1033110
Prefetch e7dffbd48040 for instr_id 1033110
Prefetch d0cc772a040 for instr_id 1033013
Prefetch d0cc772a940 for instr_id 1033013
Prefetch e7dffbd48640 for instr_id 1033109
Prefetch c050d35b7940 for instr_id 1033109
Prefetch 140dbac13440 for instr_id 1033301
Prefetch 8d0dcf319040 for instr_id 1033301
Prefetch 140dbac13640 for instr_id 1033302
Prefetch 140dbac13140 for instr_id 1033302
Prefetch bc71e9f20040 for instr_id 1033487
Prefetch 85435cd91140 for instr_id 1033487
Prefetch de8ff9c5a540 for instr_id 1033642
Prefetch 7e8d44ba4640 for instr_id 1033716
Prefetch 7e8d44ba4140 for instr_id 1033716
Prefetch 40c1ec713840 for instr_id 1033732
Prefetch 1a5da8bc9940 for instr_id 1033732
Prefetch b57f7fe4c840 for instr_id 1033749
Prefetch d0cc77db940 for instr_id 1033749
Prefetch fc336488a140 for instr_id 1033815
Prefetch 183cd0714940 for instr_id 1033815
Prefetch 54faff91140 for instr_id 1033953
Prefetch 6d1680db7140 for instr_id 1033953
Prefetch 4548fdb2c740 for instr_id 1033960
Prefetch 20fdbdca8340 for instr_id 1033960
Prefetch 6e7e2d111140 for instr_id 1033956
Prefetch db5d7a639940 for instr_id 1033956
Prefetch 6e7e2d111540 for instr_id 1033958
Prefetch bf0f2ba98540 for instr_id 1033967
Prefetch 41ca4e866140 for instr_id 1033967
Prefetch c1f7487b7640 for instr_id 1033966
Prefetch 6a020102a440 for instr_id 1034086
Prefetch 32af17b83940 for instr_id 1034086
Prefetch 6a020102a140 for instr_id 1034087
Prefetch 96fa0e629540 for instr_id 1034087
Prefetch 776d24676440 for instr_id 1034278
Prefetch 776d24676940 for instr_id 1034278
Prefetch 76c569ac1740 for instr_id 1034279
Prefetch afd5fea13840 for instr_id 1034279
Prefetch b1272005a240 for instr_id 1034440
Prefetch 6d74c9ed4840 for instr_id 1034440
Prefetch 5092290d0740 for instr_id 1034577
Prefetch 5092290d0940 for instr_id 1034577
Prefetch f24435567440 for instr_id 1034592
Prefetch 28b21d68f740 for instr_id 1034592
Prefetch b6d330a5e140 for instr_id 1034593
Prefetch d09b65c10340 for instr_id 1034593
Prefetch 7f032e8db440 for instr_id 1034610
Prefetch b9184cccc640 for instr_id 1034610
Prefetch 1e77e810940 for instr_id 1034676
Prefetch 91d72b0a4640 for instr_id 1034676
Prefetch c2540114f640 for instr_id 1034820
Prefetch c7f171000140 for instr_id 1034820
Prefetch c2540114f440 for instr_id 1034822
Prefetch 5a8b704dd440 for instr_id 1034822
Prefetch d30ac659a140 for instr_id 1034824
Prefetch 184d49048340 for instr_id 1034831
Prefetch e9c9853e0940 for instr_id 1034831
Prefetch d5245578b640 for instr_id 1034843
Prefetch a1a25bdae140 for instr_id 1034843
Prefetch 7f1d1b7b040 for instr_id 1034830
Prefetch 7f1d1b7b940 for instr_id 1034830
Prefetch d5245578b440 for instr_id 1034842
Prefetch a50e606e6140 for instr_id 1035034
Prefetch 8843840c0240 for instr_id 1035034
Prefetch 6546b24b2440 for instr_id 1035035
Prefetch a6226e73f940 for instr_id 1035035
Prefetch 2ca9a10c5540 for instr_id 1035226
Prefetch 4179060a9440 for instr_id 1035227
Prefetch 4179060a9940 for instr_id 1035227
Prefetch f6ef175ca040 for instr_id 1035304
Prefetch 1b4df1fa8640 for instr_id 1035304
Prefetch 19e6355c3740 for instr_id 1035451
Prefetch 19e6355c3940 for instr_id 1035451
Prefetch 76c56992b540 for instr_id 1035452
Prefetch 27d06fab6040 for instr_id 1035452
Prefetch 6e39b6bb4540 for instr_id 1035643
Prefetch 1b4df1fa8940 for instr_id 1035643
Prefetch efe41c1e0940 for instr_id 1035644
Prefetch 56a2a4ed5440 for instr_id 1035644
Prefetch 987f58d71540 for instr_id 1035942
Prefetch 1b4df1fe1340 for instr_id 1035942
Prefetch daa4ec9ca780 for instr_id 1035990
Prefetch c04c27e08640 for instr_id 1035990
Prefetch d1d9f0e0b940 for instr_id 1036173
Prefetch 7e9cc5e16040 for instr_id 1036173
Prefetch daa4ec97d580 for instr_id 1036174
Prefetch aa82270c0640 for instr_id 1036174
Prefetch 97428e534040 for instr_id 1036176
Prefetch 97428e534440 for instr_id 1036176
Prefetch ef67761e7240 for instr_id 1036183
Prefetch 726e80c4b440 for instr_id 1036182
Prefetch 71a371608440 for instr_id 1036182
Prefetch 710a40b1d540 for instr_id 1036350
Prefetch 16df472f3640 for instr_id 1036351
Prefetch f4103e93d940 for instr_id 1036351
Prefetch 1e77e810740 for instr_id 1036542
Prefetch 9fe100c5f640 for instr_id 1036542
Prefetch 5c2995445540 for instr_id 1036543
Prefetch 9c7e5f602340 for instr_id 1036543
Prefetch 68d1cfb4e040 for instr_id 1036673
Prefetch 68d1cfb4e940 for instr_id 1036673
Prefetch f24435644640 for instr_id 1036683
Prefetch f24435644140 for instr_id 1036683
Prefetch 4fb2f3af8040 for instr_id 1036684
Prefetch f78365233340 for instr_id 1036684
Prefetch 71a37161e340 for instr_id 1036875
Prefetch 7db1511a9240 for instr_id 1036875
Prefetch f71f8da28040 for instr_id 1036876
Prefetch 28276882440 for instr_id 1037067
Prefetch 28276882940 for instr_id 1037067
Prefetch 16c9663ef640 for instr_id 1037068
Prefetch b620b7899140 for instr_id 1037068
Prefetch 654e13b17540 for instr_id 1037299
Prefetch cc7d66ea2040 for instr_id 1037299
Prefetch 8df2bdbba940 for instr_id 1037300
Prefetch 5060ec1ee040 for instr_id 1037300
Prefetch d48152697140 for instr_id 1037491
Prefetch 1b87b0ca5340 for instr_id 1037492
Prefetch 94ab5dcde340 for instr_id 1037679
Prefetch e6daccabc140 for instr_id 1037679
Prefetch ec7ca3d95340 for instr_id 1037801
Prefetch ec7ca3d95640 for instr_id 1037801
Prefetch fa8b44d89340 for instr_id 1037818
Prefetch 52d6833c5340 for instr_id 1037818
Prefetch 6a7698db9440 for instr_id 1037884
Prefetch 76c569a37440 for instr_id 1037884
Prefetch 71a37161b540 for instr_id 1038025
Prefetch 9bd4d81ba340 for instr_id 1038025
Prefetch eae5e297a540 for instr_id 1038027
Prefetch eae5e297a940 for instr_id 1038027
Prefetch 759b31338940 for instr_id 1038036
Prefetch 55da13359040 for instr_id 1038036
Prefetch 6dea12fa9540 for instr_id 1038035
Prefetch e231e4a47040 for instr_id 1038131
Prefetch e231e4a47440 for instr_id 1038131
Prefetch e231e4a47640 for instr_id 1038132
Prefetch e231e4a47140 for instr_id 1038132
Prefetch c91331f93c80 for instr_id 1038323
Prefetch 1980fe981340 for instr_id 1038323
Prefetch 29d25d042640 for instr_id 1038324
Prefetch 1a18229fd440 for instr_id 1038324
Prefetch b0801a202240 for instr_id 1038509
Prefetch 76c56994f740 for instr_id 1038623
Prefetch 98d31f900440 for instr_id 1038623
Prefetch 20fb40303040 for instr_id 1038639
Prefetch 36c3e84e9840 for instr_id 1038639
Prefetch 2662cab9c140 for instr_id 1038687
Prefetch ea761776d540 for instr_id 1038687
Prefetch 44934f52c140 for instr_id 1038871
Prefetch b0801a1e9940 for instr_id 1038871
Prefetch 5fd2a3802440 for instr_id 1038873
Prefetch 54edc7973540 for instr_id 1038880
Prefetch 7a2c7cfd4340 for instr_id 1038964
Prefetch 3d171a2d9440 for instr_id 1038879
Prefetch 54edc7973440 for instr_id 1038879
Prefetch 9478a8c25140 for instr_id 1038963
Prefetch 10c4d1477740 for instr_id 1038963
Prefetch 76c569ac1240 for instr_id 1039155
Prefetch e8b928da5540 for instr_id 1039155
Prefetch 361b9a9ae540 for instr_id 1039156
Prefetch 31bb4ac19940 for instr_id 1039370
Prefetch 6ea4b26f8140 for instr_id 1039370
Prefetch 45586702b540 for instr_id 1039380
Prefetch 6dc7ed6b7340 for instr_id 1039381
Prefetch 5a812adc8940 for instr_id 1039381
Prefetch 94ab5dca6540 for instr_id 1039572
Prefetch 3d8f8f640 for instr_id 1039572
Prefetch 4170e0e9540 for instr_id 1039573
Prefetch 94ab5dca6040 for instr_id 1039573
Prefetch a07d87c2a140 for instr_id 1039764
Prefetch a07d87c2a440 for instr_id 1039764
Prefetch a07d87c2a640 for instr_id 1039765
Prefetch f1bf11bb4140 for instr_id 1039765
Prefetch 6546b248f540 for instr_id 1039888
Prefetch a91325e79640 for instr_id 1039888
Prefetch 12433297c340 for instr_id 1039889
Prefetch 2bcb15d29540 for instr_id 1039869
Prefetch 5f5831ce3140 for instr_id 1040020
Prefetch 5f5831ce3440 for instr_id 1040020
Prefetch 5f5831ce3140 for instr_id 1040021
Prefetch 4acec8242040 for instr_id 1040021
Prefetch f36415629840 for instr_id 1040212
Prefetch f36415629940 for instr_id 1040212
Prefetch 6546b250d440 for instr_id 1040213
Prefetch 5105752a5640 for instr_id 1040213
Prefetch 87d2c76bd240 for instr_id 1040449
Prefetch 78fe851b3640 for instr_id 1040449
Prefetch a781b1a12440 for instr_id 1040506
Prefetch a781b1a12740 for instr_id 1040506
Prefetch a908b7c10540 for instr_id 1040522
Prefetch ddd4b792b340 for instr_id 1040522
Prefetch 5060ec293540 for instr_id 1040539
Prefetch dbd85a7ff640 for instr_id 1040570
Prefetch 1d803653b140 for instr_id 1040570
Prefetch f33ff34ce540 for instr_id 1040752
Prefetch 67e6123ce040 for instr_id 1040752
Prefetch e39e7a0d9640 for instr_id 1040754
Prefetch e39e7a0d9140 for instr_id 1040754
Prefetch 5dd65e521140 for instr_id 1040756
Prefetch 5dd65e521440 for instr_id 1040756
Prefetch 6546b247f840 for instr_id 1040762
Prefetch 6d2b458fe740 for instr_id 1040762
Prefetch 97390061c640 for instr_id 1040846
Prefetch 810a23130140 for instr_id 1040846
Prefetch 4f4382151240 for instr_id 1040763
Prefetch f4e0679be340 for instr_id 1040847
Prefetch 29d25cfe7740 for instr_id 1041038
Prefetch bbaa0b334740 for instr_id 1041038
Prefetch ef4c2943d840 for instr_id 1041039
Prefetch 87570521e940 for instr_id 1041253
Prefetch fb9ebc9e140 for instr_id 1041253
Prefetch 8c60f7bc8140 for instr_id 1041263
Prefetch 4967a1189240 for instr_id 1041263
Prefetch c065f5f56140 for instr_id 1041236
Prefetch c065f5f56440 for instr_id 1041236
Prefetch 7dde35603340 for instr_id 1041264
Prefetch d49df350f940 for instr_id 1041371
Prefetch c0db9f59e140 for instr_id 1041371
Prefetch 3d8f7f540 for instr_id 1041372
Prefetch c0db9f59e640 for instr_id 1041372
Prefetch 1873457f4340 for instr_id 1041563
Prefetch 3dd810ab5440 for instr_id 1041564
Prefetch 5a8b704ef540 for instr_id 1041564
Prefetch bc71e9f0b740 for instr_id 1041751
Prefetch 3d90b3840 for instr_id 1041751
Prefetch 77cd0fdbd340 for instr_id 1041770
Prefetch ada59f443440 for instr_id 1041771
Prefetch 6546b24e0940 for instr_id 1041771
Prefetch d35a4f571540 for instr_id 1041902
Prefetch 61ce9c527040 for instr_id 1041902
Prefetch b1dadf10b880 for instr_id 1041903
Prefetch b1dadf10b440 for instr_id 1041903
Prefetch e2a435778540 for instr_id 1042094
Prefetch 726e80a72840 for instr_id 1042095
Prefetch c931c4f0840 for instr_id 1042095
Prefetch 58a71010b140 for instr_id 1042258
Prefetch 734c5da61540 for instr_id 1042258
Prefetch a908b7b69640 for instr_id 1042652
Prefetch 311e856af640 for instr_id 1042842
Prefetch 6da165383040 for instr_id 1042842
Prefetch 8583602d7640 for instr_id 1043000
Prefetch 36cbbe73a040 for instr_id 1043000
Prefetch f6ef17591640 for instr_id 1042985
Prefetch c01e47218140 for instr_id 1042985
Prefetch 40c87ac3a840 for instr_id 1043001
Prefetch 3d3f28b72940 for instr_id 1043001
Prefetch 330837bb5840 for instr_id 1043018
Prefetch 330837bb5940 for instr_id 1043018
Prefetch 97612b61d640 for instr_id 1043049
Prefetch f6ba19688040 for instr_id 1043049
Prefetch c1d7fa1cc940 for instr_id 1043087
Prefetch f47264ded940 for instr_id 1043087
Prefetch 17060a352140 for instr_id 1043226
Prefetch 4a7052e10140 for instr_id 1043226
Prefetch 50089a886140 for instr_id 1043225
Prefetch 50089a886940 for instr_id 1043225
Prefetch 4a7052e10640 for instr_id 1043227
Prefetch 27e32af6b140 for instr_id 1043229
Prefetch 27e32af6b640 for instr_id 1043229
Prefetch 3b20e5299640 for instr_id 1043236
Prefetch 1823c9bb5040 for instr_id 1043236
Prefetch 725df4a28640 for instr_id 1043235
Prefetch 41fd85617140 for instr_id 1043367
Prefetch afd5fe9f3640 for instr_id 1043367
Prefetch 6873b721b640 for instr_id 1043368
Prefetch a2ba4db27440 for instr_id 1043559
Prefetch a2ba4db27640 for instr_id 1043560
Prefetch 5dfbe4332140 for instr_id 1043560
Prefetch 32af17c1e440 for instr_id 1043709
Prefetch 2e3de9397240 for instr_id 1043709
Prefetch 45d7994d6140 for instr_id 1043839
Prefetch e1fa9ab55440 for instr_id 1043839
Prefetch ef4c2943f640 for instr_id 1043856
Prefetch 3cf606f55140 for instr_id 1043856
Prefetch 725df4a6b080 for instr_id 1043922
Prefetch ab2414108640 for instr_id 1043922
Prefetch 4958dfb08140 for instr_id 1043886
Prefetch e358ef93c940 for instr_id 1044071
Prefetch e358ef93c140 for instr_id 1044071
Prefetch 52aa76db2840 for instr_id 1044080
Prefetch 4170e063340 for instr_id 1044080
Prefetch afce0a308040 for instr_id 1044152
Prefetch afce0a308440 for instr_id 1044152
Prefetch 5a8b705ab240 for instr_id 1044079
Prefetch 18f416487540 for instr_id 1044079
Prefetch a8bffb805040 for instr_id 1044151
Prefetch 7f032e935140 for instr_id 1044151
Prefetch c0160e2ac340 for instr_id 1044343
Prefetch 149596201140 for instr_id 1044343
Prefetch 1ec333d10c40 for instr_id 1044344
Prefetch 1ec333d10140 for instr_id 1044344
Prefetch 358f6aba7740 for instr_id 1044535
Prefetch 358f6aba7140 for instr_id 1044535
Prefetch 654250fe8640 for instr_id 1044536
Prefetch 6cae1c0ce240 for instr_id 1044536
Prefetch c046ef044840 for instr_id 1044570
Prefetch 472f0ea15040 for instr_id 1044570
Prefetch 480799f34340 for instr_id 1044580
Prefetch 480799f34940 for instr_id 1044580
Prefetch c3e40f9f9240 for instr_id 1044676
Prefetch b01b436e3240 for instr_id 1044676
Prefetch 9cdc1bcf640 for instr_id 1044581
Prefetch aad482b59740 for instr_id 1044581
Prefetch 1c51ef104640 for instr_id 1044677
Prefetch afd5feac4040 for instr_id 1044677
Prefetch cd30d2bf0040 for instr_id 1044868
Prefetch cd30d2bf0740 for instr_id 1044868
Prefetch 88154b821640 for instr_id 1044869
Prefetch 5a37ab984680 for instr_id 1044869
Prefetch c0db9f560380 for instr_id 1045054
Prefetch d249a133c840 for instr_id 1045054
Prefetch 30cda1eee240 for instr_id 1045068
Prefetch 8102b5429140 for instr_id 1045068
Prefetch c3e40f99a140 for instr_id 1045087
Prefetch 30130cd07340 for instr_id 1045087
Prefetch 30130cd07240 for instr_id 1045088
Prefetch 7f14cd2a2140 for instr_id 1045088
Prefetch 4dfa8dd60140 for instr_id 1045207
Prefetch 4dfa8dd60040 for instr_id 1045207
Prefetch 4dfa8dd60340 for instr_id 1045208
Prefetch ec6412516140 for instr_id 1045208
Prefetch 6ea4b2652440 for instr_id 1045399
Prefetch 32af17b74740 for instr_id 1045399
Prefetch 8d6af3279940 for instr_id 1045400
Prefetch 29ceb8587580 for instr_id 1045400
Prefetch 3d171a2db740 for instr_id 1045576
Prefetch dee5a2743740 for instr_id 1045576
Prefetch d777fab4c140 for instr_id 1045682
Prefetch fe54386bf940 for instr_id 1045682
Prefetch 6d2c365aa240 for instr_id 1045698
Prefetch d2501de47340 for instr_id 1045698
Prefetch 513dac0b3740 for instr_id 1045746
Prefetch eaeaca64e440 for instr_id 1045746
Prefetch e6568d0d0540 for instr_id 1045922
Prefetch ff90d5810640 for instr_id 1045922
Prefetch 203ed72af740 for instr_id 1045924
Prefetch 7137e6077680 for instr_id 1045924
Prefetch 3738d64a7840 for instr_id 1045926
Prefetch 74e1980f3340 for instr_id 1045933
Prefetch 7e3619f38940 for instr_id 1045933
Prefetch 7f032e90d840 for instr_id 1045932
Prefetch 74e1980f3540 for instr_id 1045932
Prefetch e21d5d25b640 for instr_id 1046064
Prefetch dbc1ab5e3840 for instr_id 1046065
Prefetch 9b836b0c740 for instr_id 1046065
Prefetch bdf3209e8540 for instr_id 1046256
Prefetch f15b2938f740 for instr_id 1046256
Prefetch 4a7052ed7840 for instr_id 1046257
Prefetch 37aee622c280 for instr_id 1046257
Prefetch 4ce820fc6440 for instr_id 1046486
Prefetch c3d4b233140 for instr_id 1046486
Prefetch aa469032a040 for instr_id 1046589
Prefetch 5adb1df8c740 for instr_id 1046589
Prefetch 6fd50e3a1a40 for instr_id 1046604
Prefetch 6fe02d7c8740 for instr_id 1046604
Prefetch 966b723ac540 for instr_id 1046605
Prefetch 5737b4778640 for instr_id 1046605
Prefetch 1f62ffa79140 for instr_id 1046622
Prefetch 5b63a3d3a740 for instr_id 1046622
Prefetch c0e7f9f1a540 for instr_id 1046653
Prefetch c3e40fa89140 for instr_id 1046653
Prefetch bbcf31dd140 for instr_id 1046829
Prefetch 30825dc42240 for instr_id 1046829
Prefetch 79a242e15240 for instr_id 1046831
Prefetch 4b52b0ea8740 for instr_id 1046831
Prefetch a05b48624540 for instr_id 1046833
Prefetch e5e01a181440 for instr_id 1046833
Prefetch 47f3976fd940 for instr_id 1046840
Prefetch 47f3976fd640 for instr_id 1046840
Prefetch ec6412588440 for instr_id 1046839
Prefetch 3fe39a3c0740 for instr_id 1046839
Prefetch 12e21bbca540 for instr_id 1046971
Prefetch f669ef7d5640 for instr_id 1046971
Prefetch c3da63ea6240 for instr_id 1046972
Prefetch 1b87b0ddb240 for instr_id 1046972
Prefetch c050d355e440 for instr_id 1047163
Prefetch 9ea8c7d90140 for instr_id 1047163
Prefetch 3d9004240 for instr_id 1047164
Prefetch 92d486880740 for instr_id 1047164
Prefetch 987f58ee9440 for instr_id 1047307
Prefetch 987f58ee9140 for instr_id 1047307
Prefetch b70dcc13b540 for instr_id 1047313
Prefetch 4aa3d91f3740 for instr_id 1047443
Prefetch 4aa3d91f3140 for instr_id 1047443
Prefetch e1dda79da940 for instr_id 1047460
Prefetch d5d1b0c08740 for instr_id 1047460
Prefetch a0e5c09e7040 for instr_id 1047526
Prefetch be37d3c3b440 for instr_id 1047526
Prefetch d188ca1ce740 for instr_id 1047667
Prefetch 908a9c289740 for instr_id 1047667
Prefetch a2e38a341440 for instr_id 1047669
Prefetch 9769c2202140 for instr_id 1047669
Prefetch 9a7a155cb140 for instr_id 1047678
Prefetch 30559eb01540 for instr_id 1047678
Prefetch f73275e4b840 for instr_id 1047714
Prefetch f73275e4b940 for instr_id 1047714
Prefetch 9a7a155cb340 for instr_id 1047677
Prefetch 972ee38e8140 for instr_id 1047677
Prefetch 48d7cc96c140 for instr_id 1047713
Prefetch 9fa60b7c2740 for instr_id 1047713
Prefetch bf7d89ae540 for instr_id 1047905
Prefetch 73ececbce140 for instr_id 1047905
Prefetch 7176e0a3780 for instr_id 1047906
Prefetch 7176e0a3040 for instr_id 1047906
Prefetch 1b9dfd86940 for instr_id 1048097
Prefetch 54416415a240 for instr_id 1048098
Prefetch 3b9f00463840 for instr_id 1048098
Prefetch 8c10940b1740 for instr_id 1048151
Prefetch 7f032e90d640 for instr_id 1048151
Prefetch 40c1ec741640 for instr_id 1048288
Prefetch 6a3e4f7ed840 for instr_id 1048288
Prefetch e783ddfe8240 for instr_id 1048304
Prefetch 5de0e86e6080 for instr_id 1048304
Prefetch 310bbf57c340 for instr_id 1048321
Prefetch 310bbf57c140 for instr_id 1048321
Prefetch d00750e7d340 for instr_id 1048387
Prefetch d00750e7d140 for instr_id 1048387
Prefetch cebbfbc6e340 for instr_id 1048528
Prefetch 318552e96140 for instr_id 1048528
Prefetch aa22a79c2640 for instr_id 1048530
Prefetch aa22a79c2040 for instr_id 1048530
Prefetch aa22a79c2280 for instr_id 1048532
Prefetch d21f110b6640 for instr_id 1048539
Prefetch dbc1ab5b4740 for instr_id 1048538
Prefetch 4d8c06012840 for instr_id 1048538
Prefetch 2b78906fc840 for instr_id 1048718
Prefetch 6546b251c040 for instr_id 1048718
Prefetch c6ad171e0280 for instr_id 1048719
Prefetch b9700755a240 for instr_id 1048719
Prefetch f2540278e440 for instr_id 1048910
Prefetch afd5fea09540 for instr_id 1048910
Prefetch a54e946ba640 for instr_id 1048911
Prefetch 7a6d35473140 for instr_id 1048911
Prefetch d45d21f09540 for instr_id 1049126
Prefetch 7db1512e7140 for instr_id 1049126
Prefetch bdf3209e8940 for instr_id 1049142
Prefetch b147a4383840 for instr_id 1049142
Prefetch b268a8552640 for instr_id 1049190
Prefetch b268a8552140 for instr_id 1049190
Prefetch 2bbc78f7d040 for instr_id 1049366
Prefetch 2bbc78f7d440 for instr_id 1049366
Prefetch ee91e0a30880 for instr_id 1049368
Prefetch aa4690387640 for instr_id 1049368
Prefetch 3038d1903540 for instr_id 1049370
Prefetch e1dda7a64740 for instr_id 1049377
Prefetch 88ff4296c840 for instr_id 1049377
Prefetch 73728f787340 for instr_id 1049401
Prefetch f3dc80ecf140 for instr_id 1049401
Prefetch aaa766062640 for instr_id 1049376
Prefetch aaa766062140 for instr_id 1049376
Prefetch 348a910d4140 for instr_id 1049400
Prefetch 66e42910a540 for instr_id 1049400
Prefetch 7f032e8cc240 for instr_id 1049592
Prefetch 11c7eeba4040 for instr_id 1049592
Prefetch 11c7eeba4740 for instr_id 1049593
Prefetch 224fc4b60480 for instr_id 1049593
Prefetch 8e4a6ba46640 for instr_id 1049784
Prefetch 8e4a6ba46140 for instr_id 1049784
Prefetch 2c899d759840 for instr_id 1049785
Prefetch 220533d1e440 for instr_id 1049785
Prefetch f9625996d740 for instr_id 1049850
Prefetch 526ea56140 for instr_id 1049850
Prefetch f29df9ab0880 for instr_id 1049980
Prefetch 4376c2b18140 for instr_id 1049980
Prefetch 75e5cf463140 for instr_id 1049997
Prefetch 11088ff92880 for instr_id 1049997
Prefetch 404c3b584740 for instr_id 1050063
Prefetch 88e82fd55140 for instr_id 1050063
Prefetch db5d7a608640 for instr_id 1050216
Prefetch cf27772e1840 for instr_id 1050216
Prefetch ace9037e0740 for instr_id 1050215
Prefetch cccca92fc340 for instr_id 1050223
Prefetch 9c7e5f6ad140 for instr_id 1050223
Prefetch b8b7c6025340 for instr_id 1050295
Prefetch b8b7c6025140 for instr_id 1050295
Prefetch cccca92fc740 for instr_id 1050224
Prefetch 348a91174140 for instr_id 1050224
Prefetch 4a7d88854140 for instr_id 1050296
Prefetch f4063a39b880 for instr_id 1050296
Prefetch 399f84450a40 for instr_id 1050487
Prefetch 6f44dc7d5940 for instr_id 1050487
Prefetch a4064eb7c240 for instr_id 1050488
Prefetch 72b01e49c440 for instr_id 1050488
Prefetch 12e21bb84740 for instr_id 1050679
Prefetch 8a1dca8a4840 for instr_id 1050679
Prefetch 49ba40029440 for instr_id 1050680
Prefetch 6132ca6b1640 for instr_id 1050680
Prefetch 72400203b840 for instr_id 1050904
Prefetch cec659d71440 for instr_id 1050905
Prefetch 72400203b740 for instr_id 1050905
Prefetch c5f089867840 for instr_id 1051096
Prefetch d94afe359440 for instr_id 1051096
Prefetch d94afe359340 for instr_id 1051097
Prefetch d94afe359140 for instr_id 1051097
Prefetch 4acec815b840 for instr_id 1051213
Prefetch 4acec815b140 for instr_id 1051213
Prefetch d3403250d140 for instr_id 1051222
Prefetch f669ef7e4740 for instr_id 1051222
Prefetch 333688397840 for instr_id 1051328
Prefetch 7b2126843140 for instr_id 1051328
Prefetch 77cd0fe28340 for instr_id 1051329
Prefetch 77cd0fe28040 for instr_id 1051329
Prefetch 1e1c65b24440 for instr_id 1051520
Prefetch 61406c41640 for instr_id 1051520
Prefetch a661c5b8d880 for instr_id 1051521
Prefetch 6546b2530340 for instr_id 1051521
Prefetch 8d63020bb140 for instr_id 1051706
Prefetch de995906c440 for instr_id 1051706
Prefetch 61e9be7c4640 for instr_id 1051721
Prefetch a661c5bbf440 for instr_id 1051721
Prefetch 7642e48e7140 for instr_id 1051752
Prefetch 14168cc58340 for instr_id 1051752
Prefetch a661c5c60240 for instr_id 1051753
Prefetch cb6dfaf79640 for instr_id 1051753
Prefetch 5a8b704dd140 for instr_id 1051944
Prefetch 91914f6b6940 for instr_id 1051944
Prefetch 91d72afe7640 for instr_id 1051945
Prefetch cd30d2ba5940 for instr_id 1052136
Prefetch dc24ecc61340 for instr_id 1052136
Prefetch 58a4b4604480 for instr_id 1052137
Prefetch dc24ecc61740 for instr_id 1052137
Prefetch 10dcf536f940 for instr_id 1052228
Prefetch a5b7ecdd5340 for instr_id 1052228
Prefetch c1b46ee19140 for instr_id 1052350
Prefetch 87d2c782a940 for instr_id 1052350
Prefetch cf27773a9440 for instr_id 1052398
Prefetch cf27773a9040 for instr_id 1052398
Prefetch e5e01a190280 for instr_id 1052574
Prefetch cafb097ed740 for instr_id 1052574
Prefetch 67269cd42180 for instr_id 1052576
Prefetch 67269cd42440 for instr_id 1052576
Prefetch 544164169040 for instr_id 1052578
Prefetch df86de365240 for instr_id 1052578
Prefetch 6546b247f840 for instr_id 1052585
Prefetch 846c616b8040 for instr_id 1052585
Prefetch e3dd612c3380 for instr_id 1052584
Prefetch 846c616b8540 for instr_id 1052584
Prefetch 544164186040 for instr_id 1052716
Prefetch 55a7e262c680 for instr_id 1052716
Prefetch f5ced45a0280 for instr_id 1052717
Prefetch f5ced45a0440 for instr_id 1052717
Prefetch 698026be2540 for instr_id 1052908
Prefetch 461de136280 for instr_id 1052908
Prefetch e8871fab6940 for instr_id 1052909
Prefetch 8fe2f3c1b940 for instr_id 1052909
Prefetch c3e40f991180 for instr_id 1053218
Prefetch 24bcf7fc1340 for instr_id 1053218
Prefetch 4e2c6f1ed440 for instr_id 1053233
Prefetch 25f381608040 for instr_id 1053233
Prefetch cd30d2ba0840 for instr_id 1053234
Prefetch 25f381608940 for instr_id 1053234
Prefetch 11d49c21f540 for instr_id 1053251
Prefetch ccc920d1a940 for instr_id 1053251
Prefetch 321505bdc280 for instr_id 1053317
Prefetch b322e6ed3940 for instr_id 1053461
Prefetch 8bd8dd452940 for instr_id 1053461
Prefetch e4a4072bf780 for instr_id 1053463
Prefetch 6276c5f49040 for instr_id 1053463
Prefetch 856e16c39440 for instr_id 1053465
Prefetch afd5fea09680 for instr_id 1053465
Prefetch dab9c7f9a040 for instr_id 1053472
Prefetch dab9c7f9a140 for instr_id 1053472
Prefetch c3e40f991340 for instr_id 1053471
Prefetch 79b55f696140 for instr_id 1053471
Prefetch d3172abf040 for instr_id 1053627
Prefetch d3172abf140 for instr_id 1053627
Prefetch aa469031b640 for instr_id 1053628
Prefetch 5ea1168c0940 for instr_id 1053628
Prefetch 4991f3652740 for instr_id 1053819
Prefetch 6760741e8140 for instr_id 1053819
Prefetch cbffdc8cc140 for instr_id 1053820
Prefetch 4991f3652280 for instr_id 1053820
Prefetch 8e12c51ce640 for instr_id 1053962
Prefetch b8e59c4dc140 for instr_id 1053962
Prefetch 9e68ebe76340 for instr_id 1053964
Prefetch 9e68ebe76040 for instr_id 1053964
Prefetch 49ba3ffb2140 for instr_id 1053945
Prefetch aad482b6e780 for instr_id 1053945
Prefetch 1e1c65b88740 for instr_id 1053973
Prefetch 1af077043140 for instr_id 1054009
Prefetch 33c4cd448680 for instr_id 1054009
Prefetch 8973a9053540 for instr_id 1053972
Prefetch 1e1c65b80940 for instr_id 1053972
Prefetch 6da1dc05e640 for instr_id 1054008
Prefetch 371e0d5b8140 for instr_id 1054008
Prefetch 5f5831c79a40 for instr_id 1054200
Prefetch 7757484da340 for instr_id 1054200
Prefetch 90b4ef9e4040 for instr_id 1054201
Prefetch 7cc0cc3dc840 for instr_id 1054392
Prefetch 725df4a96540 for instr_id 1054392
Prefetch 92c3971c5340 for instr_id 1054393
Prefetch cda9de1d5040 for instr_id 1054393
Prefetch 8fe2f3c24940 for instr_id 1054446
Prefetch 8fe2f3c24680 for instr_id 1054446
Prefetch 6276c5f53540 for instr_id 1054583
Prefetch 99ef103d440 for instr_id 1054631
Prefetch 7137e5f47340 for instr_id 1054631
Prefetch 6546b24b2840 for instr_id 1054808
Prefetch bc63e016a540 for instr_id 1054808
Prefetch 2e3cb8797180 for instr_id 1054807
Prefetch bc63e016a940 for instr_id 1054807
Prefetch c046ef09a140 for instr_id 1054809
Prefetch bc71e9f0b940 for instr_id 1054811
Prefetch ead6a6ae3540 for instr_id 1054811
Prefetch bb46eda74740 for instr_id 1054818
Prefetch 71a37161b540 for instr_id 1054926
Prefetch 5a1180c49540 for instr_id 1054926
Prefetch 98a95082d540 for instr_id 1054817
Prefetch bb46eda74240 for instr_id 1054817
Prefetch 21805db8a940 for instr_id 1054925
Prefetch 50d727fa7140 for instr_id 1055117
Prefetch 50d727fa7940 for instr_id 1055117
Prefetch ee5d4122f640 for instr_id 1055118
Prefetch 3d8fdb380 for instr_id 1055118
Prefetch 2eeacd803440 for instr_id 1055421
Prefetch 2eeacd803940 for instr_id 1055421
Prefetch 5b415a269240 for instr_id 1055438
Prefetch d6720202e440 for instr_id 1055438
Prefetch e6cff9d71140 for instr_id 1055504
Prefetch 36c3e857a240 for instr_id 1055504
Prefetch f6368e5df040 for instr_id 1055647
Prefetch 98a950842780 for instr_id 1055655
Prefetch fa1359633740 for instr_id 1055655
Prefetch 16583def740 for instr_id 1055656
Prefetch 3bc947be8040 for instr_id 1055656
Prefetch 29d25cff8940 for instr_id 1055835
Prefetch 5dd65e491940 for instr_id 1055835
Prefetch 992d51c03340 for instr_id 1055836
Prefetch 992d51c03440 for instr_id 1055836
Prefetch 141656adc340 for instr_id 1056027
Prefetch ace90388c140 for instr_id 1056027
Prefetch 141656adc640 for instr_id 1056028
Prefetch 141656adc040 for instr_id 1056028
Prefetch 8ffb94277740 for instr_id 1056243
Prefetch 8ffb94277440 for instr_id 1056243
Prefetch daead3ad4740 for instr_id 1056259
Prefetch 7d8762857140 for instr_id 1056259
Prefetch a9451bd96580 for instr_id 1056307
Prefetch 5c426c45a240 for instr_id 1056307
Prefetch 91e5aa41c340 for instr_id 1056483
Prefetch e738f42ab340 for instr_id 1056483
Prefetch f46b2c69a440 for instr_id 1056485
Prefetch 6d2c365aa640 for instr_id 1056485
Prefetch f6ba197b5340 for instr_id 1056487
Prefetch 85619d7cc940 for instr_id 1056487
Prefetch c2c12df0c440 for instr_id 1056494
Prefetch 9396f8bb5140 for instr_id 1056494
Prefetch c2c12df0c040 for instr_id 1056493
Prefetch 20a0f1924840 for instr_id 1056625
Prefetch d4cf41d93940 for instr_id 1056625
Prefetch 55006f2f3140 for instr_id 1056626
Prefetch df0355d11940 for instr_id 1056817
Prefetch 6dae2270b740 for instr_id 1056817
Prefetch afd5feaa2440 for instr_id 1056818
Prefetch 6dae2270b740 for instr_id 1056818
Prefetch 6546b24a2440 for instr_id 1056967
Prefetch 6132ca74c940 for instr_id 1056967
Prefetch ec7bcca67940 for instr_id 1057047
Prefetch 60157ff60740 for instr_id 1057047
Prefetch cbc4d49b1240 for instr_id 1057173
Prefetch 96f46045c440 for instr_id 1057173
Prefetch 7e9cc5d9e740 for instr_id 1057188
Prefetch 7e9cc5d9e440 for instr_id 1057188
Prefetch 7e9cc5d9e740 for instr_id 1057189
Prefetch 7e9cc5d9e140 for instr_id 1057189
Prefetch daa4eca14540 for instr_id 1057206
Prefetch 8bc55e41740 for instr_id 1057206
Prefetch cbe1f1fc2940 for instr_id 1057272
Prefetch 87d2c76bd740 for instr_id 1057272
Prefetch c059d2496740 for instr_id 1057210
Prefetch e6cff9d69140 for instr_id 1057210
Prefetch 5a8b705cf340 for instr_id 1057223
Prefetch 955209616940 for instr_id 1057223
Prefetch c987ca9a6440 for instr_id 1057413
Prefetch 3debc6f1140 for instr_id 1057413
Prefetch c84ecb289940 for instr_id 1057415
Prefetch 194f460c040 for instr_id 1057415
Prefetch b25f90416440 for instr_id 1057417
Prefetch b25f90416140 for instr_id 1057417
Prefetch 6e53c9770040 for instr_id 1057424
Prefetch 708289644a40 for instr_id 1057424
Prefetch dc0469640140 for instr_id 1057436
Prefetch be32ef972840 for instr_id 1057423
Prefetch 220533d8a040 for instr_id 1057423
Prefetch 7cdf3dd9d040 for instr_id 1057435
Prefetch d4aa8042a940 for instr_id 1057435
Prefetch 7f51b3b8b240 for instr_id 1057627
Prefetch ba9122ae8280 for instr_id 1057627
Prefetch 403a94696140 for instr_id 1057628
Prefetch 403a94696040 for instr_id 1057628
Prefetch 581d500e240 for instr_id 1057819
Prefetch 42ed513e0340 for instr_id 1057820
Prefetch 3a8c4eff2040 for instr_id 1057820
Prefetch 6ea4b2663540 for instr_id 1057897
Prefetch 923c8afcd240 for instr_id 1057897
Prefetch 16df4730b640 for instr_id 1058051
Prefetch 16df4730b940 for instr_id 1058051
Prefetch de8ff9be1440 for instr_id 1058103
Prefetch 8631b4666140 for instr_id 1058103
Prefetch 37ed75131640 for instr_id 1058119
Prefetch b505aae7a040 for instr_id 1058119
Prefetch c71fb260a140 for instr_id 1058136
Prefetch 840077938680 for instr_id 1058136
Prefetch bda00d032540 for instr_id 1058167
Prefetch 7eee72628140 for instr_id 1058347
Prefetch 319602f07540 for instr_id 1058347
Prefetch 71a3715f2740 for instr_id 1058343
Prefetch 71a3715f2440 for instr_id 1058343
Prefetch dac7b15b7040 for instr_id 1058345
Prefetch f6368e682440 for instr_id 1058345
Prefetch b56487202740 for instr_id 1058354
Prefetch b56487202040 for instr_id 1058354
Prefetch 4d026beee640 for instr_id 1058353
Prefetch 209dd91d4140 for instr_id 1058485
Prefetch 6d2c365a1840 for instr_id 1058485
Prefetch df9004c4d280 for instr_id 1058486
Prefetch 455867031140 for instr_id 1058677
Prefetch d31729be340 for instr_id 1058677
Prefetch a246fd0f1280 for instr_id 1058678
Prefetch cb75a5e73940 for instr_id 1058678
Prefetch 54474fef8240 for instr_id 1058827
Prefetch 3025e1a3e440 for instr_id 1058957
Prefetch 3025e1a3e040 for instr_id 1058957
Prefetch 16cd45ec3480 for instr_id 1058974
Prefetch 16cd45ec3440 for instr_id 1058974
Prefetch 280bb6d15040 for instr_id 1059040
Prefetch 15fe746b3440 for instr_id 1059040
Prefetch afd5fea09280 for instr_id 1059178
Prefetch fbefd2e41840 for instr_id 1059178
Prefetch 8756d2366040 for instr_id 1059183
Prefetch 1843e654a180 for instr_id 1059183
Prefetch 3e02f20f2440 for instr_id 1059181
Prefetch a63863186140 for instr_id 1059181
Prefetch eaeaca638680 for instr_id 1059191
Prefetch f9362a283440 for instr_id 1059227
Prefetch 4acec82bd140 for instr_id 1059227
Prefetch eaeaca638040 for instr_id 1059192
Prefetch b331676fea40 for instr_id 1059192
Prefetch f9362a283640 for instr_id 1059228
Prefetch 9813ac849240 for instr_id 1059228
Prefetch 891949763180 for instr_id 1059419
Prefetch 891949763040 for instr_id 1059419
Prefetch 49015e08c140 for instr_id 1059420
Prefetch 361b9a93e940 for instr_id 1059420
Prefetch 7a089ac52440 for instr_id 1059611
Prefetch 7a089ac52140 for instr_id 1059611
Prefetch 29d25d05d940 for instr_id 1059612
Prefetch b7877c1c2740 for instr_id 1059612
Prefetch 8ad5e50b840 for instr_id 1059665
Prefetch 8ad5e50b640 for instr_id 1059665
Prefetch a1f6c64f740 for instr_id 1059802
Prefetch a1f6c64f140 for instr_id 1059802
Prefetch 68842886c040 for instr_id 1059817
Prefetch f6620178140 for instr_id 1059817
Prefetch 68842886c740 for instr_id 1059818
Prefetch 3dd09412e240 for instr_id 1059818
Prefetch dd86bbb38340 for instr_id 1059835
Prefetch cec659e79740 for instr_id 1059835
Prefetch f78365219340 for instr_id 1059901
Prefetch 92c397208340 for instr_id 1059901
Prefetch 9ec8d4935540 for instr_id 1060046
Prefetch 9ec8d4935140 for instr_id 1060046
Prefetch 5f08dfb50480 for instr_id 1060042
Prefetch 5f08dfb51040 for instr_id 1060042
Prefetch 7f032e920440 for instr_id 1060044
Prefetch f85c00668140 for instr_id 1060044
Prefetch c3e40fa4b980 for instr_id 1060053
Prefetch 654e13a2c940 for instr_id 1060053
Prefetch 4fae04546580 for instr_id 1060149
Prefetch 4fae04546240 for instr_id 1060149
Prefetch c3e40fa89240 for instr_id 1060052
Prefetch 168b126fe840 for instr_id 1060052
Prefetch 4fae04546940 for instr_id 1060148
Prefetch 57f88513e240 for instr_id 1060148
Prefetch cb75a5efd640 for instr_id 1060340
Prefetch db1e7e648940 for instr_id 1060340
Prefetch a4473d037680 for instr_id 1060341
Prefetch b94dece37740 for instr_id 1060341
Prefetch 1d8211838540 for instr_id 1060526
Prefetch 1d8211838840 for instr_id 1060526
Prefetch 5f4186f66680 for instr_id 1060686
Prefetch 164475b30540 for instr_id 1060686
Prefetch 500455bbb840 for instr_id 1060702
Prefetch 6fc91b09e140 for instr_id 1060702
Prefetch e42293605840 for instr_id 1060719
Prefetch e42293605140 for instr_id 1060719
Prefetch f1247c68d680 for instr_id 1060750
Prefetch f1247c68d240 for instr_id 1060750
Prefetch d7f286b91680 for instr_id 1060934
Prefetch d7f286b91240 for instr_id 1060934
Prefetch 92643c3f4840 for instr_id 1060932
Prefetch 92643c3f4140 for instr_id 1060932
Prefetch e1d492328680 for instr_id 1060936
Prefetch 6bbec8ef9240 for instr_id 1060942
Prefetch 4e2c6f22f040 for instr_id 1060942
Prefetch 63d19fd05040 for instr_id 1060943
Prefetch 63d19fd05440 for instr_id 1060943
Prefetch d44ddd668840 for instr_id 1061086
Prefetch 5d6ba963c040 for instr_id 1061086
Prefetch f06a3e412840 for instr_id 1061087
Prefetch e0ee53946140 for instr_id 1061087
Prefetch bbc28d875240 for instr_id 1061278
Prefetch 2c03a8019680 for instr_id 1061278
Prefetch 9323c68df680 for instr_id 1061279
Prefetch 9323c68df240 for instr_id 1061279
Prefetch 908e8a4ff140 for instr_id 1061433
Prefetch 3cd7aa89240 for instr_id 1061433
Prefetch d188ca1e1840 for instr_id 1061435
Prefetch d188ca1e1140 for instr_id 1061435
Prefetch 4eaac3189240 for instr_id 1061416
Prefetch df536f90d680 for instr_id 1061416
Prefetch cc1eb0624940 for instr_id 1061444
Prefetch a19d03b3f080 for instr_id 1061552
Prefetch a19d03b3f240 for instr_id 1061552
Prefetch e3d3ddf62240 for instr_id 1061443
Prefetch e3d3ddf62840 for instr_id 1061443
Prefetch 7aac7116a140 for instr_id 1061551
Prefetch 48325fef4240 for instr_id 1061551
Prefetch cb75a5f10040 for instr_id 1061743
Prefetch 2d904060d940 for instr_id 1061743
Prefetch be4516242680 for instr_id 1061744
Prefetch 33624e6a4940 for instr_id 1061744
Prefetch 4071781d7680 for instr_id 1061951
Prefetch 8cf0f5236140 for instr_id 1061951
Prefetch e8c999974740 for instr_id 1061952
Prefetch 70f3defa2340 for instr_id 1061932
Prefetch 70f3defa2740 for instr_id 1061932
Prefetch 229b1befe240 for instr_id 1062083
Prefetch a5caf569c680 for instr_id 1062083
Prefetch a5caf569c080 for instr_id 1062084
Prefetch a5caf569c240 for instr_id 1062084
Prefetch f4aa8682a740 for instr_id 1062275
Prefetch 2371cd501940 for instr_id 1062275
Prefetch 4aa3d91ea740 for instr_id 1062276
Prefetch 3f7243523040 for instr_id 1062276
Prefetch f4ed3bc37940 for instr_id 1062439
Prefetch 1843e6441240 for instr_id 1062439
Prefetch 68bcf62f1040 for instr_id 1062561
Prefetch 2ba1144ab180 for instr_id 1062561
Prefetch cb92ebb2d940 for instr_id 1062578
Prefetch 9c7e5f637040 for instr_id 1062578
Prefetch dfb21e570640 for instr_id 1062644
Prefetch 7a6d353f6040 for instr_id 1062644
Prefetch ecfc7304d040 for instr_id 1062791
Prefetch c6bbc31ec180 for instr_id 1062791
Prefetch c6bbc31ec240 for instr_id 1062790
Prefetch 1e0f503e0240 for instr_id 1062790
Prefetch e53a3c1c2680 for instr_id 1062799
Prefetch d78b5620f680 for instr_id 1062871
Prefetch 9b3a12d5a140 for instr_id 1062871
Prefetch 93e498a89140 for instr_id 1062798
Prefetch fca86e8cc940 for instr_id 1062798
Prefetch 211ffc045c40 for instr_id 1062870
Prefetch f4aa86923140 for instr_id 1062870
Prefetch 4fcec1177340 for instr_id 1063062
Prefetch 4fcec1177840 for instr_id 1063062
Prefetch 4fcec1177340 for instr_id 1063063
Prefetch f7e43ab1240 for instr_id 1063063
Prefetch 25fd40f00280 for instr_id 1063254
Prefetch 25fd40f00240 for instr_id 1063254
Prefetch 25fd40f00840 for instr_id 1063255
Prefetch 25fd40f00140 for instr_id 1063255
Prefetch 4b72958a2840 for instr_id 1063479
Prefetch 4b72958a2140 for instr_id 1063479
Prefetch 24bcf7f2e340 for instr_id 1063480
Prefetch 36cbbe725240 for instr_id 1063480
Prefetch 5d4277b70380 for instr_id 1063671
Prefetch 5d4277b70240 for instr_id 1063671
Prefetch 92c39729d140 for instr_id 1063672
Prefetch ca5907d23940 for instr_id 1063672
Prefetch e1bcb1681140 for instr_id 1063787
Prefetch f4aa867e8340 for instr_id 1063787
Prefetch 40c87acdb340 for instr_id 1063909
Prefetch 3269c535f140 for instr_id 1063909
Prefetch d95709f25940 for instr_id 1063957
Prefetch aee789970340 for instr_id 1063957
Prefetch c14dc897fa40 for instr_id 1064137
Prefetch 8b9a0f93b940 for instr_id 1064137
Prefetch dc87329be680 for instr_id 1064133
Prefetch 140342386940 for instr_id 1064135
Prefetch 1598af00d440 for instr_id 1064144
Prefetch 318552d2c240 for instr_id 1064144
Prefetch 4aa3d91a9140 for instr_id 1064168
Prefetch c3c3666da140 for instr_id 1064168
Prefetch 1598af00d940 for instr_id 1064143
Prefetch fca86e934140 for instr_id 1064143
Prefetch 8c109428f440 for instr_id 1064167
Prefetch 8c109428f240 for instr_id 1064167
Prefetch be8f36133840 for instr_id 1064359
Prefetch 9f6d11b31140 for instr_id 1064359
Prefetch be8f36133240 for instr_id 1064360
Prefetch 8bc55d81680 for instr_id 1064360
Prefetch c3ebbcefd540 for instr_id 1064551
Prefetch 3437ede3940 for instr_id 1064552
Prefetch ca1eca7dd240 for instr_id 1064617
Prefetch f6f01ab8ea40 for instr_id 1064617
Prefetch 6624e3864680 for instr_id 1064777
Prefetch 7642e484f140 for instr_id 1064792
Prefetch 50089a7c8480 for instr_id 1064792
Prefetch 50089a7c8840 for instr_id 1064793
Prefetch 50089a7c8140 for instr_id 1064793
Prefetch 68c89fdc9940 for instr_id 1064810
Prefetch 68c89fdc9840 for instr_id 1064810
Prefetch 555a7c041140 for instr_id 1064876
Prefetch aa28893d7040 for instr_id 1064876
Prefetch 4054c20c5340 for instr_id 1065019
Prefetch 3ccc7a08f140 for instr_id 1065019
[...]
Prefetch 49ba40038740 for instr_id 1963952
Prefetch 194eae23e340 for instr_id 1964192
Prefetch 194eae23e380 for instr_id 1964192
Prefetch 987f58e07440 for instr_id 1964306
Prefetch 5e83c1409440 for instr_id 1964306
Prefetch 4cd0b88b1140 for instr_id 1964583
Prefetch 712626c0d840 for instr_id 1964583
Prefetch f427cac33140 for instr_id 1964726
Prefetch d7afb7583380 for instr_id 1964726
Prefetch 6a7e864ae240 for instr_id 1964792
Prefetch 7210c4b9d340 for instr_id 1964792
Prefetch 81c338b27140 for instr_id 1965164
Prefetch 362506959240 for instr_id 1965164
Prefetch 5dde30cdc440 for instr_id 1965208
Prefetch 53d370dfa140 for instr_id 1965208
Prefetch fc9b839b640 for instr_id 1965296
Prefetch 7176e1a5140 for instr_id 1965296
Prefetch d12c7e43b540 for instr_id 1965424
Prefetch daa4ec97d740 for instr_id 1965424
Prefetch 215575cf7280 for instr_id 1965542
Prefetch 215575cf7640 for instr_id 1965542
Prefetch fca86e880840 for instr_id 1965654
Prefetch d401f3f5480 for instr_id 1965654
Prefetch 611f5695c640 for instr_id 1966246
Prefetch 611f5695c040 for instr_id 1966246
Prefetch 297642150180 for instr_id 1966358
Prefetch 297642150640 for instr_id 1966358
Prefetch ebd162633340 for instr_id 1966480
Prefetch ebd162633440 for instr_id 1966480
Prefetch 36da8a0b0380 for instr_id 1966761
Prefetch 36cbbe648640 for instr_id 1966761
Prefetch 5d6ba957b540 for instr_id 1966910
Prefetch 5d6ba957b940 for instr_id 1966910
Prefetch d27094db9440 for instr_id 1966981
Prefetch d27094db9540 for instr_id 1966981
Prefetch 53bbae5ea040 for instr_id 1967114
Prefetch 53bbae5ea940 for instr_id 1967114
Prefetch 7790b2439640 for instr_id 1967192
Prefetch 7790b2439380 for instr_id 1967192
Prefetch 215575d19040 for instr_id 1967230
Prefetch 8e0099c86940 for instr_id 1967230
Prefetch e15cca0c3240 for instr_id 1967314
Prefetch a3c0075e2440 for instr_id 1967314
Prefetch 68d1cfbd7240 for instr_id 1967358
Prefetch ea439ca69680 for instr_id 1967358
Prefetch c9d96fcc180 for instr_id 1967594
Prefetch c9d96fcc440 for instr_id 1967594
Prefetch fdf5c6e74040 for instr_id 1967973
Prefetch 697b4fef7440 for instr_id 1967973
Prefetch 20fdbde01640 for instr_id 1973371
Prefetch 20fdbde01040 for instr_id 1973371
Prefetch 35aad7397640 for instr_id 1973380
Prefetch 6b9492bfa540 for instr_id 1973380
Prefetch 879adbaae840 for instr_id 1973382
Prefetch 6b9492bfa640 for instr_id 1973382
Prefetch c8695be0d740 for instr_id 1973378
Prefetch 220533d8b780 for instr_id 1973378
Prefetch 581d4fdb540 for instr_id 1973383
Prefetch 581d4fdb740 for instr_id 1973383
Prefetch 581d4fdb640 for instr_id 1973384
Prefetch 581d4fdb540 for instr_id 1973384
Prefetch 581d4fdb640 for instr_id 1973387
Prefetch 581d4fdb340 for instr_id 1973387
Prefetch 4096bd7dd640 for instr_id 1973394
Prefetch 4096bd7dd040 for instr_id 1973394
Prefetch 33fe9fd85140 for instr_id 1973395
Prefetch 4096bd7ddc40 for instr_id 1973395
Prefetch a0f2adad1540 for instr_id 1973504
Prefetch 78b701199340 for instr_id 1973504
Prefetch 220533dbd440 for instr_id 1973398
Prefetch 23f44ba1e340 for instr_id 1973398
Prefetch 11d49c264840 for instr_id 1973416
Prefetch 25804025f640 for instr_id 1973577
Prefetch 96cbce5ce640 for instr_id 1973577
Prefetch 25fd40fb9140 for instr_id 1973584
Prefetch e9c985540640 for instr_id 1973584
Prefetch e6cff9d54940 for instr_id 1973728
Prefetch bc63dffe6240 for instr_id 1973728
Prefetch 6cc9f52c0640 for instr_id 1973952
Prefetch eea0c4afa340 for instr_id 1973952
Prefetch ed1ed890a540 for instr_id 1974176
Prefetch ab9075492640 for instr_id 1974176
Prefetch e6cff9d84340 for instr_id 1974221
Prefetch 8631b46e9240 for instr_id 1974221
Prefetch 35aad7397240 for instr_id 1974389
Prefetch 34221bd8c240 for instr_id 1974389
Prefetch fedc36002780 for instr_id 1974396
Prefetch fedc36002640 for instr_id 1974396
Prefetch 9b6576395340 for instr_id 1974624
Prefetch e9c9854ca940 for instr_id 1974624
Prefetch 88835cfe2940 for instr_id 1974634
Prefetch ca531fb5a640 for instr_id 1974634
Prefetch 1f088d6e0440 for instr_id 1974669
Prefetch eae47fd41240 for instr_id 1974669
Prefetch 304e65aaf740 for instr_id 1974848
Prefetch 3a5540027340 for instr_id 1974848
Prefetch c0b16f73840 for instr_id 1975072
Prefetch 879adba70340 for instr_id 1975072
Prefetch d39a5b0ea640 for instr_id 1975296
Prefetch d39a5b0ea140 for instr_id 1975296
Prefetch 2c6113580a40 for instr_id 1975520
Prefetch 35aad7397340 for instr_id 1975520
Prefetch 7a0a580ec780 for instr_id 1975744
Prefetch 7a0a580ec480 for instr_id 1975744
Prefetch 7cf779b02340 for instr_id 1975968
Prefetch 7cf779b02280 for instr_id 1975968
Prefetch 684071be4140 for instr_id 1976192
Prefetch 8fe2f3b90c40 for instr_id 1976192
Prefetch f48bc3ff9440 for instr_id 1976419
Prefetch f48bc3ff9140 for instr_id 1976419
Prefetch 4f0092ee0040 for instr_id 1976640
Prefetch d35adf35340 for instr_id 1976640
Prefetch 1db250780140 for instr_id 1976864
Prefetch 361b9a90a740 for instr_id 1976864
Prefetch ada79b93e440 for instr_id 1976922
Prefetch 72ca15f99640 for instr_id 1976922
Prefetch 4d72bb5be640 for instr_id 1977091
Prefetch 4d72bb5be940 for instr_id 1977091
Prefetch 5e83c13e6640 for instr_id 1977084
Prefetch 5e83c13e6540 for instr_id 1977084
Prefetch c3e40f990440 for instr_id 1977312
Prefetch acc7d699640 for instr_id 1977312
Prefetch 25fd40fe7840 for instr_id 1977536
Prefetch 2c8cc11c040 for instr_id 1977536
Prefetch 4f51d3808640 for instr_id 1977756
Prefetch 6fb5bff45240 for instr_id 1977756
Prefetch e3bad6644640 for instr_id 1977846
Prefetch e3bad6644340 for instr_id 1977846
Prefetch cf67dc041240 for instr_id 1977987
Prefetch cf67dc041340 for instr_id 1977987
Prefetch cd818717a640 for instr_id 1978208
Prefetch 7e8d44ba1780 for instr_id 1978208
Prefetch 7ffb40cb6040 for instr_id 1978432
Prefetch 6fb9fe9c3140 for instr_id 1978432
Prefetch ef5d264b2340 for instr_id 1978656
Prefetch ef5d264b2680 for instr_id 1978656
Prefetch aad482b36780 for instr_id 1978812
Prefetch 8103bcb7340 for instr_id 1978812
Prefetch 6dcd371bd940 for instr_id 1978834
Prefetch 6dcd371bd740 for instr_id 1978834
Prefetch 89ab22341940 for instr_id 1978880
Prefetch 89ab22341640 for instr_id 1978880
Prefetch db37d44f9840 for instr_id 1979104
Prefetch f12862a61140 for instr_id 1979104
Prefetch 5737b4852180 for instr_id 1979328
Prefetch 5737b4852840 for instr_id 1979328
Prefetch 361b9aa32940 for instr_id 1979552
Prefetch 361b9aa32280 for instr_id 1979552
Prefetch 583ff135a680 for instr_id 1979750
Prefetch 583ff135a240 for instr_id 1979750
Prefetch 2eaa75ab0240 for instr_id 1979776
Prefetch 6dea12fbf680 for instr_id 1980000
Prefetch 6dea12fbf240 for instr_id 1980000
Prefetch acbb6d3ba640 for instr_id 1980224
Prefetch f24435566740 for instr_id 1980224
Prefetch 20fdbdd0c140 for instr_id 1980451
Prefetch d89e16e75740 for instr_id 1980451
Prefetch cb61e65a2580 for instr_id 1980660
Prefetch cb61e65a2440 for instr_id 1980660
Prefetch abfae54cd680 for instr_id 1980672
Prefetch 33624e7b5840 for instr_id 1980780
Prefetch a541c9d86140 for instr_id 1980780
Prefetch f0f48b549540 for instr_id 1980896
Prefetch f0f48b549340 for instr_id 1980896
Prefetch 74e04e8d1580 for instr_id 1981120
Prefetch 74e04e8d1540 for instr_id 1981120
Prefetch 3116ca046940 for instr_id 1981347
Prefetch a1a25bc29580 for instr_id 1981347
Prefetch dec097c10140 for instr_id 1981568
Prefetch 24c39555f740 for instr_id 1981568
Prefetch adc309f41580 for instr_id 1981654
Prefetch adc309f41840 for instr_id 1981654
Prefetch 148c9b84c980 for instr_id 1981792
Prefetch 148c9b84c840 for instr_id 1981792
Prefetch 654a82c04240 for instr_id 1982016
Prefetch 654a82c04140 for instr_id 1982016
Prefetch e5eab0151540 for instr_id 1982240
Prefetch 45de63eef280 for instr_id 1982464
Prefetch 45de63eef240 for instr_id 1982464
Prefetch 88663a605640 for instr_id 1982655
Prefetch ddae926ae940 for instr_id 1982655
Prefetch 23bf3626f740 for instr_id 1982688
Prefetch 7470cc31380 for instr_id 1982688
Prefetch a924a7561740 for instr_id 1982803
Prefetch ab8c2cb98380 for instr_id 1982803
Prefetch a526c3f06740 for instr_id 1982912
Prefetch 973948aba740 for instr_id 1982912
Prefetch 504d65c37680 for instr_id 1983136
Prefetch c3d4b203140 for instr_id 1983136
Prefetch 2471e8621680 for instr_id 1983363
Prefetch c1c2d848d980 for instr_id 1983584
Prefetch c1c2d848d840 for instr_id 1983584
Prefetch f018cc5b3140 for instr_id 1983691
Prefetch 8c08f7ea2740 for instr_id 1983691
Prefetch 98f0d9096940 for instr_id 1983808
Prefetch 23f7f31bf980 for instr_id 1983808
Prefetch 55cbd9a75c40 for instr_id 1984032
Prefetch 55cbd9a75540 for instr_id 1984032
Prefetch d94d3df8e140 for instr_id 1984256
Prefetch d94d3df8e940 for instr_id 1984256
Prefetch 20fdbde3d640 for instr_id 1984476
Prefetch 701bbba35840 for instr_id 1984476
Prefetch 9c2b152ef840 for instr_id 1984664
Prefetch 9c2b152ef140 for instr_id 1984664
Prefetch 37f288d98140 for instr_id 1984704
Prefetch 37f288d98240 for instr_id 1984704
Prefetch e1e9704b780 for instr_id 1984833
Prefetch e1e9704b940 for instr_id 1984833
Prefetch 30efd9370580 for instr_id 1984928
Prefetch 30efd9370940 for instr_id 1984928
Prefetch b8480f277940 for instr_id 1985152
Prefetch 87a99097c980 for instr_id 1985152
Prefetch 63d19fcb5240 for instr_id 1985376
Prefetch 76f104a38940 for instr_id 1985376
Prefetch af6b54d14680 for instr_id 1985581
Prefetch e503d4a7b840 for instr_id 1985600
Prefetch 8dc0343ec140 for instr_id 1985600
Prefetch c62ed70dd280 for instr_id 1985824
Prefetch db2d6c1a6840 for instr_id 1985824
Prefetch f73275f0c940 for instr_id 1986048
Prefetch c5a38586d140 for instr_id 1986048
Prefetch e4fa60a91240 for instr_id 1986272
Prefetch e4fa60a91440 for instr_id 1986272
Prefetch 288074798880 for instr_id 1986496
Prefetch 288074798240 for instr_id 1986496
Prefetch 2abfc50fa880 for instr_id 1986568
Prefetch 2abfc50fa240 for instr_id 1986568
Prefetch 53b7adff1840 for instr_id 1986681
Prefetch 53b7adff1140 for instr_id 1986681
Prefetch a690c2195840 for instr_id 1986720
Prefetch e191514a8840 for instr_id 1986720
Prefetch 5b415a3ba040 for instr_id 1986944
Prefetch bcc1f5931240 for instr_id 1986944
Prefetch 53b7adf78680 for instr_id 1987168
Prefetch 53b7adf78040 for instr_id 1987168
Prefetch a29904f09240 for instr_id 1987392
Prefetch a29904f09340 for instr_id 1987392
Prefetch 1bffce0c9240 for instr_id 1987616
Prefetch 1bffce0c9340 for instr_id 1987616
Prefetch bf2b5d787440 for instr_id 1987709
Prefetch 4e2c6f2eb840 for instr_id 1987709
Prefetch cb6dfae78540 for instr_id 1987840
Prefetch 7785ba730940 for instr_id 1987840
Prefetch b45baa707c40 for instr_id 1988067
Prefetch b45baa707440 for instr_id 1988067
Prefetch 1f869f4b240 for instr_id 1988288
Prefetch 365906ec7840 for instr_id 1988288
Prefetch 3888d8592140 for instr_id 1988514
Prefetch 7090bc040840 for instr_id 1988514
Prefetch c34056c51840 for instr_id 1988515
Prefetch 5a942f54a140 for instr_id 1988515
Prefetch c3d4b156840 for instr_id 1988669
Prefetch 258040238840 for instr_id 1988669
Prefetch db34f3fbc040 for instr_id 1988736
Prefetch eb4bd3e7d440 for instr_id 1988960
Prefetch eb4bd3e7d240 for instr_id 1988960
Prefetch dc94ffa65440 for instr_id 1989187
Prefetch dc94ffa65240 for instr_id 1989187
Prefetch 725df4a1a840 for instr_id 1989408
Prefetch b58331a62840 for instr_id 1989408
Prefetch 8c66dae24240 for instr_id 1989424
Prefetch 8c66dae24540 for instr_id 1989424
Prefetch 87d9bf599340 for instr_id 1989632
Prefetch e85631cb1240 for instr_id 1989632
Prefetch 68bcf6427340 for instr_id 1989856
Prefetch 9e9a73833780 for instr_id 1990080
Prefetch 9e9a73833540 for instr_id 1990080
Prefetch b0db36eb4540 for instr_id 1990304
Prefetch b0db36eb4580 for instr_id 1990304
Prefetch 8dbbb3f84440 for instr_id 1990528
Prefetch 8dbbb3f84540 for instr_id 1990528
Prefetch eef9ccd60840 for instr_id 1990752
Prefetch f58dc2565140 for instr_id 1990752
Prefetch 899efb505540 for instr_id 1990971
Prefetch 899efb505640 for instr_id 1990971
Prefetch 1e1c65b26640 for instr_id 1990972
Prefetch a72654c23940 for instr_id 1990972
Prefetch d7e7cda8b340 for instr_id 1990986
Prefetch 78efd9ed2640 for instr_id 1991200
Prefetch 78efd9ed2140 for instr_id 1991200
Prefetch c51c8a3b240 for instr_id 1991424
Prefetch c51c8a3b940 for instr_id 1991424
Prefetch 9f476b774940 for instr_id 1991622
Prefetch c17af524d040 for instr_id 1991622
Prefetch a7e334824040 for instr_id 1991648
Prefetch a7e334824240 for instr_id 1991648
Prefetch c08b01af1540 for instr_id 1991868
Prefetch c2540110b980 for instr_id 1991868
Prefetch 3e1d797b0840 for instr_id 1992096
Prefetch 93d86b74f940 for instr_id 1992096
Prefetch 7f55ead7f340 for instr_id 1992320
Prefetch a32985144340 for instr_id 1992455
Prefetch 7471334c2340 for instr_id 1992455
Prefetch 6da165463840 for instr_id 1992470
Prefetch 5c0ef8766940 for instr_id 1992470
Prefetch 9b1fc1afb740 for instr_id 1992544
Prefetch a7fbd0aa9340 for instr_id 1992544
Prefetch ceaf1223d980 for instr_id 1992768
Prefetch ceaf1223d840 for instr_id 1992768
Prefetch acc7d7e7540 for instr_id 1992995
Prefetch acc7d7e7840 for instr_id 1992995
Prefetch cd86f34d8540 for instr_id 1993064
Prefetch b6be106c8840 for instr_id 1993064
Prefetch 84d6f97e6840 for instr_id 1993210
Prefetch 84d6f97e6140 for instr_id 1993210
Prefetch 47b2ec49d840 for instr_id 1993441
Prefetch 25d50fe15340 for instr_id 1993441
Prefetch 2ddd25a3c580 for instr_id 1993662
Prefetch 2ddd25a3c840 for instr_id 1993662
Prefetch ab542ee67580 for instr_id 1993734
Prefetch ab542ee67940 for instr_id 1993734
Prefetch 5cd267749340 for instr_id 1993749
Prefetch f66da7c7c740 for instr_id 1993749
Prefetch a908b7b78040 for instr_id 1993886
Prefetch 786fd9c23540 for instr_id 1993886
Prefetch 98f0d900d840 for instr_id 1994110
Prefetch c0097e1c140 for instr_id 1994110
Prefetch a48c4e7db340 for instr_id 1994334
Prefetch a48c4e7db840 for instr_id 1994334
Prefetch 7955e8b08940 for instr_id 1994497
Prefetch f9e6f0a10540 for instr_id 1994497
Prefetch d0b09d89f740 for instr_id 1994558
Prefetch d0b09d89f440 for instr_id 1994558
Prefetch 395337aed240 for instr_id 1994780
Prefetch d600c581cc40 for instr_id 1994780
Prefetch bc329bde8580 for instr_id 1995002
Prefetch 18a57f741040 for instr_id 1995002
Prefetch 879adbb5f440 for instr_id 1995207
Prefetch 1f088d7c8940 for instr_id 1995207
Prefetch d401f49b580 for instr_id 1995226
Prefetch d401f49b040 for instr_id 1995226
Prefetch 6b9492be7440 for instr_id 1995299
Prefetch 3ba506e6a940 for instr_id 1995299
Prefetch c14624a45740 for instr_id 1995450
Prefetch d7b9dac05840 for instr_id 1995674
Prefetch d7b9dac05240 for instr_id 1995674
Prefetch ad1650fd7980 for instr_id 1995896
Prefetch ad1650fd7140 for instr_id 1995896
Prefetch 2129a520a540 for instr_id 1995975
Prefetch 2129a520a240 for instr_id 1995975
Prefetch 878b0b6a8640 for instr_id 1996120
Prefetch 878b0b6a8540 for instr_id 1996120
Prefetch f66e1a4db440 for instr_id 1996344
Prefetch 8c23f4cd1440 for instr_id 1996344
Prefetch 5350b5840240 for instr_id 1996568
Prefetch 10dcf5383540 for instr_id 1996568
Prefetch 83cf90cd7280 for instr_id 1996724
Prefetch f67df755a040 for instr_id 1996724
Prefetch a12bbd4aa240 for instr_id 1996792
Prefetch cbba9085b240 for instr_id 1996870
Prefetch a3d0041fd240 for instr_id 1996870
Prefetch 3dc013ab2840 for instr_id 1997014
Prefetch 7f032e8be640 for instr_id 1997014
Prefetch 64ea053d4240 for instr_id 1997238
Prefetch cd81871d9140 for instr_id 1997238
Prefetch d94d3dfa1040 for instr_id 1997394
Prefetch d4febc535440 for instr_id 1997394
Prefetch e6a00c3b6480 for instr_id 1997462
Prefetch e6a00c3b6340 for instr_id 1997462
Prefetch 7ebed0b3840 for instr_id 1997686
Prefetch 7ebed0b3940 for instr_id 1997686
Prefetch 6b3b3436240 for instr_id 1997910
Prefetch 523c7f3e7c40 for instr_id 1997910
Prefetch b8250a2a2080 for instr_id 1998134
Prefetch b8250a2a2340 for instr_id 1998134
Prefetch 6e5304f75240 for instr_id 1998206
Prefetch 5fa83a03b340 for instr_id 1998206
Prefetch a3c007644040 for instr_id 1998221
Prefetch bbc8c88b8040 for instr_id 1998221
Prefetch ae8c57a37440 for instr_id 1998358
Prefetch eee4e7ad9380 for instr_id 1998358
Prefetch 36debddc1340 for instr_id 1998582
Prefetch 5ea1169a4340 for instr_id 1998582
Prefetch d4beba74f940 for instr_id 1998804
Prefetch 335da0f4c040 for instr_id 1998804
Prefetch 6d2c36491040 for instr_id 1998946
Prefetch 908c86cc1580 for instr_id 1998946
Prefetch 9b9579238440 for instr_id 1999028
Prefetch 9b9579238140 for instr_id 1999028
Prefetch c3e40fa04440 for instr_id 1999213
Prefetch 27ad3b9f5640 for instr_id 1999213
Prefetch daa4ec932680 for instr_id 1999252
Prefetch 4ce820fbb240 for instr_id 1999252
Prefetch c08b01b0e440 for instr_id 1999476
Prefetch c08b01b0e940 for instr_id 1999476
Prefetch 24fbc2130a40 for instr_id 1999700
Prefetch 24fbc2130540 for instr_id 1999700
Prefetch 203ed72c8440 for instr_id 1999926
Prefetch 812c687a1580 for instr_id 1999926
Prefetch 29abf80f8940 for instr_id 1999927
Prefetch 5ca540083040 for instr_id 1999927
Heartbeat CPU 0 instructions: 10000001 cycles: 16102559 heartbeat IPC: 0.621019 cumulative IPC: 0.571915 (Simulation time: 0 hr 0 min 14 sec) 

Warmup complete CPU 0 instructions: 10000001 cycles: 16102559 (Simulation time: 0 hr 0 min 14 sec) 

Finished CPU 0 instructions: 1000002 cycles: 2227788 cumulative IPC: 0.448877 (Simulation time: 0 hr 0 min 16 sec) 

ChampSim completed all CPUs

Region of Interest Statistics

CPU 0 cumulative IPC: 0.448877 instructions: 1000002 cycles: 2227788
L1D TOTAL     ACCESS:     167168  HIT:     143722  MISS:      23446
L1D LOAD      ACCESS:     130649  HIT:     107528  MISS:      23121
L1D RFO       ACCESS:      36519  HIT:      36194  MISS:        325
L1D PREFETCH  ACCESS:          0  HIT:          0  MISS:          0
L1D WRITEBACK ACCESS:          0  HIT:          0  MISS:          0
L1D PREFETCH  REQUESTED:          0  ISSUED:          0  USEFUL:          0  USELESS:          0
L1D AVERAGE MISS LATENCY: 141.014 cycles
L1I TOTAL     ACCESS:     179593  HIT:     179593  MISS:          0
L1I LOAD      ACCESS:     179593  HIT:     179593  MISS:          0
L1I RFO       ACCESS:          0  HIT:          0  MISS:          0
L1I PREFETCH  ACCESS:          0  HIT:          0  MISS:          0
L1I WRITEBACK ACCESS:          0  HIT:          0  MISS:          0
L1I PREFETCH  REQUESTED:          0  ISSUED:          0  USEFUL:          0  USELESS:          0
L1I AVERAGE MISS LATENCY: nan cycles
L2C TOTAL     ACCESS:      23773  HIT:       8137  MISS:      15636
L2C LOAD      ACCESS:      23121  HIT:       7811  MISS:      15310
L2C RFO       ACCESS:        325  HIT:          0  MISS:        325
L2C PREFETCH  ACCESS:          0  HIT:          0  MISS:          0
L2C WRITEBACK ACCESS:        327  HIT:        326  MISS:          1
L2C PREFETCH  REQUESTED:          0  ISSUED:          0  USEFUL:          0  USELESS:          0
L2C AVERAGE MISS LATENCY: 186.065 cycles
LLC TOTAL     ACCESS:      15920  HIT:        435  MISS:      15485
LLC LOAD      ACCESS:      15310  HIT:        150  MISS:      15160
LLC RFO       ACCESS:        325  HIT:          0  MISS:        325
LLC PREFETCH  ACCESS:          0  HIT:          0  MISS:          0
LLC WRITEBACK ACCESS:        285  HIT:        285  MISS:          0
LLC PREFETCH  REQUESTED:          0  ISSUED:          0  USEFUL:          0  USELESS:          0
LLC AVERAGE MISS LATENCY: 156.211 cycles
Major fault: 0 Minor fault: 3428
CPU 0 LLC from file prefetcher final stats

DRAM Statistics
 CHANNEL 0
 RQ ROW_BUFFER_HIT:       7404  ROW_BUFFER_MISS:       8081
 DBUS_CONGESTED:      14681
 WQ ROW_BUFFER_HIT:       1484  ROW_BUFFER_MISS:        939  FULL:          0

 AVG_CONGESTED_CYCLE: 5

CPU 0 Branch Prediction Accuracy: 97.5799% MPKI: 2.72799 Average ROB Occupancy at Mispredict: 153.015

Branch types
NOT_BRANCH: 887284 88.7282%
BRANCH_DIRECT_JUMP: 1468 0.1468%
BRANCH_INDIRECT: 0 0%
BRANCH_CONDITIONAL: 102591 10.2591%
BRANCH_DIRECT_CALL: 4331 0.433099%
BRANCH_INDIRECT_CALL: 0 0%
BRANCH_RETURN: 4331 0.433099%
BRANCH_OTHER: 0 0%

gzip: error writing to output: Broken pipe
gzip: /Users/DHRUVA/Desktop/ML-DPC/ChampSimTraces/spec06/482.sphinx3-s2.trace.gz: uncompress failed
