
*** ChampSim Multicore Out-of-Order Simulator ***

Warmup Instructions: 1000000
Prefetch Warmup Instructions: 10000000
Simulation Instructions: 1000000
Number of CPUs: 1
LLC sets: 2048
LLC ways: 16
Off-chip DRAM Size: 4096 MB Channels: 1 Width: 64-bit Data Rate: 3200 MT/s

CPU 0 runs /Users/DHRUVA/Desktop/ML-DPC/ChampSimTraces/spec06/482.sphinx3-s2.trace.gz
Read seed: 1041
CPU 0 LLC from_file prefetcher

Warmup complete CPU 0 instructions: 1000004 cycles: 365952 (Simulation time: 0 hr 0 min 1 sec) 

Prefetch 8deda85d1241 for instr_id 1000043
Prefetch 8deda85d0241 for instr_id 1000044
Prefetch 8deda85c8441 for instr_id 1000175
Prefetch 8deda85cf281 for instr_id 1000200
Prefetch 8deda85d0301 for instr_id 1000209
Prefetch 26713c3bfa41 for instr_id 1000181
Prefetch 8deda85d1301 for instr_id 1000208
Prefetch 8deda85d1341 for instr_id 1000376
Prefetch 8deda85d0341 for instr_id 1000377
Prefetch 8deda85d1381 for instr_id 1000568
Prefetch 8deda85d0381 for instr_id 1000569
Prefetch ea2062ed381 for instr_id 1000696
Prefetch 8deda85cb341 for instr_id 1000841
Prefetch 8deda85c7b81 for instr_id 1000858
Prefetch 8deda85c7bc1 for instr_id 1000889
Prefetch 8deda85c8481 for instr_id 1001069
Prefetch 8deda85ce2c1 for instr_id 1001068
Prefetch 8deda85cf2c1 for instr_id 1001070
Prefetch 257ba86e7a81 for instr_id 1001072
Prefetch 8deda85d0b81 for instr_id 1001079
Prefetch 8deda85d1b81 for instr_id 1001078
Prefetch 8deda85d1bc1 for instr_id 1001222
Prefetch 8deda85d0bc1 for instr_id 1001223
Prefetch 8deda85d1c01 for instr_id 1001414
Prefetch 8deda85d0c01 for instr_id 1001415
Prefetch 8deda85ce301 for instr_id 1001569
Prefetch 8deda85cf301 for instr_id 1001571
Prefetch 26713c3bfa81 for instr_id 1001552
Prefetch 8deda85d0e81 for instr_id 1001580
Prefetch 8deda85d0ec1 for instr_id 1001688
Prefetch 8deda85d1e81 for instr_id 1001579
Prefetch 8deda85d1ec1 for instr_id 1001687
Prefetch 8deda85d1f01 for instr_id 1001879
Prefetch 8deda85d0f01 for instr_id 1001880
Prefetch d8de3c9b3b01 for instr_id 1002068
Prefetch 8deda85cb381 for instr_id 1002190
Prefetch 8deda85c7c01 for instr_id 1002207
Prefetch 8deda85c7c41 for instr_id 1002273
Prefetch 8deda85d2041 for instr_id 1002427
Prefetch 8deda85d2081 for instr_id 1002475
Prefetch 8deda85d3041 for instr_id 1002428
Prefetch 8deda85d3081 for instr_id 1002476
Prefetch 8deda85d20c1 for instr_id 1002667
Prefetch 8deda85d30c1 for instr_id 1002668
Prefetch 8deda85d2101 for instr_id 1002859
Prefetch 8deda85d3101 for instr_id 1002860
Prefetch 8deda85d2141 for instr_id 1003084
Prefetch 8deda85d3141 for instr_id 1003085
Prefetch 8deda85d2181 for instr_id 1003276
Prefetch 8deda85d3181 for instr_id 1003277
Prefetch 8deda85c84c1 for instr_id 1003516
Prefetch 8deda85cb3c1 for instr_id 1003532
Prefetch 8deda85c7c81 for instr_id 1003580
Prefetch 8deda85ce341 for instr_id 1003759
Prefetch 8deda85cf381 for instr_id 1003761
Prefetch 257ba86e7ac1 for instr_id 1003763
Prefetch 8deda85d3701 for instr_id 1003770
Prefetch 8deda85d3741 for instr_id 1003854
Prefetch 8deda85d2701 for instr_id 1003769
Prefetch 8deda85d2741 for instr_id 1003853
Prefetch 8deda85d2781 for instr_id 1004045
Prefetch 8deda85d3781 for instr_id 1004046
Prefetch 26713c3bfac1 for instr_id 1004243
Prefetch 8deda85ce381 for instr_id 1004260
Prefetch 8deda85d2981 for instr_id 1004270
Prefetch 8deda85d3981 for instr_id 1004271
Prefetch 8deda85d29c1 for instr_id 1004402
Prefetch 8deda85d39c1 for instr_id 1004403
Prefetch 8deda85d2a01 for instr_id 1004594
Prefetch 8deda85d3a01 for instr_id 1004595
Prefetch 8deda85cb401 for instr_id 1004874
Prefetch 8deda85c7cc1 for instr_id 1004891
Prefetch 8deda85c7d01 for instr_id 1004957
Prefetch 8deda85c8501 for instr_id 1005101
Prefetch 8deda85cf3c1 for instr_id 1005100
Prefetch 8deda85d2c01 for instr_id 1005108
Prefetch 8deda85d3c01 for instr_id 1005109
Prefetch 8deda85d2c41 for instr_id 1005288
Prefetch 8deda85d3c41 for instr_id 1005289
Prefetch 8deda85d2c81 for instr_id 1005480
Prefetch 8deda85d3c81 for instr_id 1005481
Prefetch 8deda85cb441 for instr_id 1005712
Prefetch 8deda85c7d41 for instr_id 1005760
Prefetch 8deda85ce3c1 for instr_id 1005939
Prefetch 257ba86e7b01 for instr_id 1005943
Prefetch 8deda85d2f01 for instr_id 1005949
Prefetch 8deda85d3f01 for instr_id 1005950
Prefetch 8deda85d2f41 for instr_id 1006093
Prefetch 8deda85d3f41 for instr_id 1006094
Prefetch 8deda85d2f81 for instr_id 1006285
Prefetch 8deda85d3f81 for instr_id 1006286
Prefetch 8deda85cf401 for instr_id 1006442
Prefetch 8deda85d4041 for instr_id 1006451
Prefetch 26713c3bfb01 for instr_id 1006423
Prefetch 8deda85d5041 for instr_id 1006450
Prefetch 8deda85d5081 for instr_id 1006618
Prefetch 8deda85d4081 for instr_id 1006619
Prefetch 8deda85d50c1 for instr_id 1006810
Prefetch 8deda85d40c1 for instr_id 1006811
Prefetch 8deda85cb481 for instr_id 1007053
Prefetch 8deda85c7d81 for instr_id 1007070
Prefetch 8deda85c7dc1 for instr_id 1007136
Prefetch 8deda85c8541 for instr_id 1007277
Prefetch 8deda85ce441 for instr_id 1007280
Prefetch 8deda85cf441 for instr_id 1007282
Prefetch 8deda85d4781 for instr_id 1007291
Prefetch 8deda85d5781 for instr_id 1007290
Prefetch 8deda85d57c1 for instr_id 1007410
Prefetch 8deda85d47c1 for instr_id 1007411
Prefetch 8deda85d5801 for instr_id 1007602
Prefetch 8deda85d4801 for instr_id 1007603
Prefetch 26713c3bfb41 for instr_id 1007764
Prefetch 8deda85d5841 for instr_id 1007827
Prefetch 8deda85d4841 for instr_id 1007828
Prefetch 8deda85d5881 for instr_id 1008019
Prefetch 8deda85d4881 for instr_id 1008020
Prefetch 8deda85d58c1 for instr_id 1008211
Prefetch 8deda85d48c1 for instr_id 1008212
Prefetch 98f5690f3f81 for instr_id 1008280
Prefetch 8deda85c8601 for instr_id 1008478
Prefetch 8ec426c6ec81 for instr_id 1008493
Prefetch 8deda85cb5c1 for instr_id 1008494
Prefetch 8deda85c7f41 for instr_id 1008511
Prefetch 8deda85c7f81 for instr_id 1008542
Prefetch 8deda85ce541 for instr_id 1008721
Prefetch 8deda85cf581 for instr_id 1008723
Prefetch 257ba86e7bc1 for instr_id 1008725
Prefetch 8deda85d6e01 for instr_id 1008732
Prefetch 8deda85d6e41 for instr_id 1008816
Prefetch 8deda85d7e01 for instr_id 1008731
Prefetch 8deda85d7e41 for instr_id 1008815
Prefetch 8deda85d7e81 for instr_id 1009007
Prefetch 8deda85d6e81 for instr_id 1009008
Prefetch 8deda85ce581 for instr_id 1009222
Prefetch 8deda85d7ec1 for instr_id 1009232
Prefetch 26713c3bfbc1 for instr_id 1009205
Prefetch 8deda85d6ec1 for instr_id 1009233
Prefetch 8deda85d7f01 for instr_id 1009424
Prefetch 8deda85d6f01 for instr_id 1009425
Prefetch 8deda85d7f41 for instr_id 1009616
Prefetch 8deda85d6f41 for instr_id 1009617
Prefetch d79e62ac9cc1 for instr_id 1009785
Prefetch 8deda85c8681 for instr_id 1009888
Prefetch 8ec426c6ecc1 for instr_id 1009903
Prefetch 8deda85cb6c1 for instr_id 1009904
Prefetch 8deda85d80c1 for instr_id 1009921
Prefetch 8deda85d8101 for instr_id 1009952
Prefetch 8deda85ce641 for instr_id 1010128
Prefetch 8deda85cf681 for instr_id 1010130
Prefetch 257ba86e7c41 for instr_id 1010132
Prefetch 8deda85da181 for instr_id 1010139
Prefetch 8deda85da1c1 for instr_id 1010223
Prefetch 8deda85d9181 for instr_id 1010138
Prefetch 8deda85d91c1 for instr_id 1010222
Prefetch 8deda85d9201 for instr_id 1010414
Prefetch 8deda85da201 for instr_id 1010415
Prefetch 8deda85c86c1 for instr_id 1010606
Prefetch 26713c3bfc41 for instr_id 1010612
Prefetch 8deda85cb701 for instr_id 1010742
Prefetch 8deda85d8141 for instr_id 1010759
Prefetch 8deda85d8181 for instr_id 1010825
Prefetch 8deda85ce681 for instr_id 1010966
Prefetch 8deda85d9481 for instr_id 1010976
Prefetch 8deda85d94c1 for instr_id 1011024
Prefetch 8deda85da481 for instr_id 1010977
Prefetch 8deda85da4c1 for instr_id 1011025
Prefetch 8deda85d9501 for instr_id 1011216
Prefetch 8deda85da501 for instr_id 1011217
Prefetch 8deda85d9541 for instr_id 1011408
Prefetch 8deda85da541 for instr_id 1011409
Prefetch 8deda85c8701 for instr_id 1011587
Prefetch 8deda85cb781 for instr_id 1011603
Prefetch 8deda85d8201 for instr_id 1011620
Prefetch 8deda85d8241 for instr_id 1011686
Prefetch 8deda85ce701 for instr_id 1011833
Prefetch 8deda85cf701 for instr_id 1011835
Prefetch 257ba86e7c81 for instr_id 1011837
Prefetch 8deda85dae41 for instr_id 1011844
Prefetch 8deda85dae81 for instr_id 1011892
Prefetch 8deda85d9e41 for instr_id 1011843
Prefetch 8deda85d9e81 for instr_id 1011891
Prefetch 8deda85d9ec1 for instr_id 1012083
Prefetch 8deda85daec1 for instr_id 1012084
Prefetch 8deda85d9f01 for instr_id 1012275
Prefetch 8deda85daf01 for instr_id 1012276
Prefetch 26713c3bfc81 for instr_id 1012317
Prefetch 8deda85d9f41 for instr_id 1012500
Prefetch 8deda85daf41 for instr_id 1012501
Prefetch 8deda85d9f81 for instr_id 1012692
Prefetch 8deda85daf81 for instr_id 1012693
Prefetch 8deda85cf741 for instr_id 1012844
Prefetch 8deda85dafc1 for instr_id 1012925
Prefetch 8deda85d9fc1 for instr_id 1012924
Prefetch 8deda85db001 for instr_id 1013116
Prefetch 8deda85dc001 for instr_id 1013117
Prefetch 8deda85db041 for instr_id 1013308
Prefetch 8deda85dc041 for instr_id 1013309
Prefetch 98f5690f3541 for instr_id 1013340
Prefetch 8deda85c8741 for instr_id 1013469
Prefetch 8deda85cb801 for instr_id 1013485
Prefetch 8deda85d82c1 for instr_id 1013502
Prefetch 8deda85d8301 for instr_id 1013568
Prefetch 8deda85c8781 for instr_id 1013718
Prefetch 8deda85ce781 for instr_id 1013715
Prefetch 8deda85cf781 for instr_id 1013717
Prefetch 257ba86e7cc1 for instr_id 1013719
Prefetch 8deda85dc8c1 for instr_id 1013726
Prefetch 8deda85db8c1 for instr_id 1013725
Prefetch 8deda85db901 for instr_id 1013881
Prefetch 8deda85dc901 for instr_id 1013882
Prefetch 8deda85db941 for instr_id 1014073
Prefetch 8deda85dc941 for instr_id 1014074
Prefetch 8deda85cf7c1 for instr_id 1014218
Prefetch 8deda85dc981 for instr_id 1014299
Prefetch 26713c3bfcc1 for instr_id 1014199
Prefetch 8deda85db981 for instr_id 1014298
Prefetch 8deda85db9c1 for instr_id 1014490
Prefetch 8deda85dc9c1 for instr_id 1014491
Prefetch 8deda85dba01 for instr_id 1014682
Prefetch 8deda85dca01 for instr_id 1014683
Prefetch 8deda85dba41 for instr_id 1014913
Prefetch 8deda85dca41 for instr_id 1014914
Prefetch 8deda85dba81 for instr_id 1015105
Prefetch 8deda85dca81 for instr_id 1015106
Prefetch ea2062ed141 for instr_id 1015221
Prefetch d8de3cc55881 for instr_id 1015275
Prefetch 8deda85cb841 for instr_id 1015343
Prefetch 8deda85d8341 for instr_id 1015391
Prefetch 8deda85ce801 for instr_id 1015567
Prefetch 8deda85cf801 for instr_id 1015569
Prefetch 257ba86e7d01 for instr_id 1015571
Prefetch 8deda85dd141 for instr_id 1015578
Prefetch 8deda85de141 for instr_id 1015577
Prefetch 8deda85de181 for instr_id 1015709
Prefetch 8deda85dd181 for instr_id 1015710
Prefetch 8deda85de1c1 for instr_id 1015901
Prefetch 8deda85dd1c1 for instr_id 1015902
Prefetch 26713c3bfd01 for instr_id 1016051
Prefetch 8deda85c8801 for instr_id 1016211
Prefetch 8ec426c6ed01 for instr_id 1016226
Prefetch 8deda85cb901 for instr_id 1016227
Prefetch 8deda85d8441 for instr_id 1016244
Prefetch 8deda85d8481 for instr_id 1016310
Prefetch 8deda85ce8c1 for instr_id 1016451
Prefetch 8deda85cf8c1 for instr_id 1016453
Prefetch 257ba86e7d41 for instr_id 1016455
Prefetch 8deda85dde81 for instr_id 1016462
Prefetch 8deda85ddec1 for instr_id 1016474
Prefetch 8deda85dee81 for instr_id 1016461
Prefetch 8deda85deec1 for instr_id 1016473
Prefetch 8deda85def01 for instr_id 1016665
Prefetch 8deda85ddf01 for instr_id 1016666
Prefetch 8deda85def41 for instr_id 1016857
Prefetch 8deda85ddf41 for instr_id 1016858
Prefetch 26713c3bfd81 for instr_id 1016935
Prefetch d79e62ac9d01 for instr_id 1017084
Prefetch 8deda85c88c1 for instr_id 1017164
Prefetch 8deda85cba81 for instr_id 1017180
Prefetch 8deda85d8681 for instr_id 1017197
Prefetch 8deda85d86c1 for instr_id 1017263
Prefetch 8deda85c8901 for instr_id 1017401
Prefetch 8deda85cea41 for instr_id 1017404
Prefetch 8deda85cfa41 for instr_id 1017406
Prefetch 257ba86e7e01 for instr_id 1017408
Prefetch 8deda85dfb41 for instr_id 1017415
Prefetch 8deda85dfb81 for instr_id 1017511
Prefetch 8deda85e0b41 for instr_id 1017414
Prefetch 8deda85e0b81 for instr_id 1017510
Prefetch 8deda85e0bc1 for instr_id 1017702
Prefetch 8deda85dfbc1 for instr_id 1017703
Prefetch 26713c3bfe41 for instr_id 1017888
Prefetch 8deda85c8941 for instr_id 1018025
Prefetch 8ec426c6ed41 for instr_id 1018040
Prefetch 8deda85cbb01 for instr_id 1018041
Prefetch 8deda85d8741 for instr_id 1018058
Prefetch 8deda85d8781 for instr_id 1018124
Prefetch 8deda85cea81 for instr_id 1018271
Prefetch 8deda85cfac1 for instr_id 1018273
Prefetch 257ba86e7e41 for instr_id 1018275
Prefetch 8deda85e13c1 for instr_id 1018282
Prefetch 8deda85e23c1 for instr_id 1018281
Prefetch 8deda85e2401 for instr_id 1018353
Prefetch 8deda85e1401 for instr_id 1018354
Prefetch 8deda85e2441 for instr_id 1018545
Prefetch 8deda85e1441 for instr_id 1018546
Prefetch 8deda85e2481 for instr_id 1018737
Prefetch 8deda85e1481 for instr_id 1018738
Prefetch 8deda85ceac1 for instr_id 1018772
Prefetch 8deda85e2501 for instr_id 1018782
Prefetch 8deda85e1501 for instr_id 1018783
Prefetch 8deda85e2541 for instr_id 1018878
Prefetch 8deda85e1541 for instr_id 1018879
Prefetch 8deda85e2581 for instr_id 1019070
Prefetch 8deda85e1581 for instr_id 1019071
Prefetch 26713c3bfe81 for instr_id 1019256
Prefetch 98f569102581 for instr_id 1019271
Prefetch 8deda85e25c1 for instr_id 1019302
Prefetch 8deda85e15c1 for instr_id 1019303
Prefetch 8deda85e2601 for instr_id 1019494
Prefetch 8deda85e1601 for instr_id 1019495
Prefetch 8deda85e2641 for instr_id 1019686
Prefetch 8deda85e1641 for instr_id 1019687
Prefetch 98f569102781 for instr_id 1019778
Prefetch 8deda85cbb41 for instr_id 1019900
Prefetch 8deda85d87c1 for instr_id 1019948
Prefetch 8deda85c8981 for instr_id 1020128
Prefetch 8deda85ceb01 for instr_id 1020127
Prefetch 8deda85cfb01 for instr_id 1020129
Prefetch 257ba86e7e81 for instr_id 1020131
Prefetch 8deda85e1a01 for instr_id 1020138
Prefetch 8deda85e2a01 for instr_id 1020137
Prefetch 8deda85e2a41 for instr_id 1020329
Prefetch 8deda85e1a41 for instr_id 1020330
Prefetch 8deda85e2a81 for instr_id 1020521
Prefetch 8deda85e1a81 for instr_id 1020522
Prefetch 8deda85e2bc1 for instr_id 1020638
Prefetch 8deda85e1bc1 for instr_id 1020639
Prefetch 8deda85e2c01 for instr_id 1020770
Prefetch 8deda85e1c01 for instr_id 1020771
Prefetch 8deda85e2c41 for instr_id 1020962
Prefetch 8deda85e1c41 for instr_id 1020963
Prefetch 8ad3301c9141 for instr_id 1021126
Prefetch 8deda85cbb81 for instr_id 1021248
Prefetch 8deda85d8801 for instr_id 1021265
Prefetch 8deda85d8841 for instr_id 1021331
Prefetch 8deda85ceb41 for instr_id 1021472
Prefetch 8deda85cfb41 for instr_id 1021474
Prefetch 8deda85e4081 for instr_id 1021483
Prefetch 8deda85e3081 for instr_id 1021482
Prefetch 8deda85e30c1 for instr_id 1021518
Prefetch 8deda85e40c1 for instr_id 1021519
Prefetch 8deda85e3101 for instr_id 1021710
Prefetch 8deda85e4101 for instr_id 1021711
Prefetch 8deda85e3141 for instr_id 1021902
Prefetch 8deda85e4141 for instr_id 1021903
Prefetch 26713c3bfec1 for instr_id 1021956
Prefetch 8deda85c89c1 for instr_id 1022070
Prefetch 8deda85cbbc1 for instr_id 1022086
Prefetch 8deda85d8881 for instr_id 1022134
Prefetch 8deda85ceb81 for instr_id 1022310
Prefetch 8deda85cfb81 for instr_id 1022312
Prefetch 257ba86e7ec1 for instr_id 1022314
Prefetch 8deda85e4441 for instr_id 1022321
Prefetch 8deda85e4481 for instr_id 1022429
Prefetch 8deda85e3441 for instr_id 1022320
Prefetch 8deda85e3481 for instr_id 1022428
Prefetch 8deda85e34c1 for instr_id 1022620
Prefetch 8deda85e44c1 for instr_id 1022621
Prefetch 8deda85c8a01 for instr_id 1022954
Prefetch 8deda85cbc81 for instr_id 1022970
Prefetch 8deda85d8981 for instr_id 1022987
Prefetch 8deda85d89c1 for instr_id 1023053
Prefetch 8deda85c8a41 for instr_id 1023197
Prefetch 8deda85cec01 for instr_id 1023200
Prefetch 8deda85cfc01 for instr_id 1023202
Prefetch 257ba86e7f01 for instr_id 1023204
Prefetch 8deda85e5081 for instr_id 1023211
Prefetch 8deda85e6081 for instr_id 1023210
Prefetch 8deda85e60c1 for instr_id 1023366
Prefetch 8deda85e50c1 for instr_id 1023367
Prefetch 8deda85e6101 for instr_id 1023558
Prefetch 8deda85e5101 for instr_id 1023559
Prefetch 8deda85cec41 for instr_id 1023701
Prefetch 8deda85cfc41 for instr_id 1023703
Prefetch 26713c3bff01 for instr_id 1023684
Prefetch 8deda85e5241 for instr_id 1023712
Prefetch 8deda85e5281 for instr_id 1023808
Prefetch 8deda85e6241 for instr_id 1023711
Prefetch 8deda85e6281 for instr_id 1023807
Prefetch 8deda85e62c1 for instr_id 1023999
Prefetch 8deda85e52c1 for instr_id 1024000
Prefetch 26713c3bff41 for instr_id 1024185
Prefetch 8deda85e6401 for instr_id 1024212
Prefetch 8deda85e5401 for instr_id 1024213
Prefetch 8deda85e6441 for instr_id 1024248
Prefetch 8deda85e5441 for instr_id 1024249
Prefetch 8deda85e6481 for instr_id 1024440
Prefetch 8deda85e5481 for instr_id 1024441
Prefetch 8deda85e64c1 for instr_id 1024632
Prefetch 8deda85e54c1 for instr_id 1024633
Prefetch 8ec426c6ed81 for instr_id 1024822
Prefetch 8deda85cbcc1 for instr_id 1024823
Prefetch 8deda85d8a01 for instr_id 1024871
Prefetch 8deda85cec81 for instr_id 1025047
Prefetch 8deda85cfc81 for instr_id 1025049
Prefetch 257ba86e7f41 for instr_id 1025051
Prefetch 8deda85e5741 for instr_id 1025058
Prefetch 8deda85e6741 for instr_id 1025057
Prefetch 8deda85e6781 for instr_id 1025249
Prefetch 8deda85e5781 for instr_id 1025250
Prefetch 8deda85e67c1 for instr_id 1025441
Prefetch 8deda85e57c1 for instr_id 1025442
Prefetch 8deda85c8a81 for instr_id 1025525
Prefetch 8deda85cbd01 for instr_id 1025661
Prefetch 8deda85d8a41 for instr_id 1025678
Prefetch 8deda85d8a81 for instr_id 1025744
Prefetch 8deda85cecc1 for instr_id 1025885
Prefetch 8deda85cfcc1 for instr_id 1025887
Prefetch 8deda85e5dc1 for instr_id 1025896
Prefetch 8deda85e5e01 for instr_id 1025932
Prefetch 8deda85e6dc1 for instr_id 1025895
Prefetch 8deda85e6e01 for instr_id 1025931
Prefetch 8deda85e6e41 for instr_id 1026123
Prefetch 8deda85e5e41 for instr_id 1026124
Prefetch 8deda85e6e81 for instr_id 1026315
Prefetch 8deda85e5e81 for instr_id 1026316
Prefetch 26713c3bff81 for instr_id 1026369
Prefetch 8deda85cbd41 for instr_id 1026499
Prefetch 8deda85d8ac1 for instr_id 1026547
Prefetch 8deda85c8ac1 for instr_id 1026724
Prefetch 8deda85cfd01 for instr_id 1026725
Prefetch 257ba86e7f81 for instr_id 1026727
Prefetch 8deda85e5fc1 for instr_id 1026734
Prefetch 8deda85e6fc1 for instr_id 1026733
Prefetch 8deda85e7001 for instr_id 1026901
Prefetch 8deda85e8001 for instr_id 1026902
Prefetch 8deda85e7041 for instr_id 1027093
Prefetch 8deda85e8041 for instr_id 1027094
Prefetch 8deda85cbd81 for instr_id 1027337
Prefetch 8deda85d8b01 for instr_id 1027354
Prefetch 8deda85d8b41 for instr_id 1027420
Prefetch 8deda85ced01 for instr_id 1027570
Prefetch 8deda85e7401 for instr_id 1027580
Prefetch 8deda85e8401 for instr_id 1027581
Prefetch 8deda85e7441 for instr_id 1027736
Prefetch 8deda85e8441 for instr_id 1027737
Prefetch 8deda85e7481 for instr_id 1027928
Prefetch 8deda85e8481 for instr_id 1027929
Prefetch 8deda85cfd41 for instr_id 1028073
Prefetch 8deda85e84c1 for instr_id 1028154
Prefetch 8deda85e74c1 for instr_id 1028153
Prefetch 8deda85e7501 for instr_id 1028345
Prefetch 8deda85e8501 for instr_id 1028346
Prefetch 8deda85e7541 for instr_id 1028537
Prefetch 8deda85e8541 for instr_id 1028538
Prefetch 8deda85ced41 for instr_id 1028579
Prefetch 8deda85e7641 for instr_id 1028589
Prefetch 8deda85e8641 for instr_id 1028590
Prefetch 8deda85e8681 for instr_id 1028602
Prefetch 8deda85e76c1 for instr_id 1028793
Prefetch 8deda85e86c1 for instr_id 1028794
Prefetch 8deda85e7701 for instr_id 1028985
Prefetch 8deda85e8701 for instr_id 1028986
Prefetch 26713c3bffc1 for instr_id 1029063
Prefetch 98f569130601 for instr_id 1029078
Prefetch 8deda85e7741 for instr_id 1029217
Prefetch 8deda85e8741 for instr_id 1029218
Prefetch 8deda85e7781 for instr_id 1029409
Prefetch 8deda85e8781 for instr_id 1029410
Prefetch 8deda85c8b01 for instr_id 1029692
Prefetch 8deda85cbdc1 for instr_id 1029708
Prefetch 8deda85d8b81 for instr_id 1029756
Prefetch 8deda85ced81 for instr_id 1029932
Prefetch 8deda85cfd81 for instr_id 1029934
Prefetch 257ba86e7fc1 for instr_id 1029936
Prefetch 8deda85e8b41 for instr_id 1029943
Prefetch 8deda85e7b41 for instr_id 1029942
Prefetch 8deda85e7b81 for instr_id 1030050
Prefetch 8deda85e8b81 for instr_id 1030051
Prefetch 8deda85e7bc1 for instr_id 1030242
Prefetch 8deda85e8bc1 for instr_id 1030243
Prefetch 8deda85cbe01 for instr_id 1030546
Prefetch 8deda85d8bc1 for instr_id 1030563
Prefetch 8deda85d8c01 for instr_id 1030629
Prefetch 8deda85c8b41 for instr_id 1030776
Prefetch 8deda85cedc1 for instr_id 1030773
Prefetch 8deda85cfdc1 for instr_id 1030775
Prefetch 8deda85e8f81 for instr_id 1030784
Prefetch 8deda85e8fc1 for instr_id 1030880
Prefetch 8deda85e7f81 for instr_id 1030783
Prefetch 8deda85e7fc1 for instr_id 1030879
Prefetch 8deda85e9001 for instr_id 1031071
Prefetch 8deda85ea001 for instr_id 1031072
Prefetch 8deda85e90c1 for instr_id 1031284
Prefetch 8deda85ea0c1 for instr_id 1031285
Prefetch 8deda85eb001 for instr_id 1031257
Prefetch 8deda85e9101 for instr_id 1031404
Prefetch 8deda85ea101 for instr_id 1031405
Prefetch 8deda85e9141 for instr_id 1031596
Prefetch 8deda85ea141 for instr_id 1031597
Prefetch d79e62ac9d41 for instr_id 1031822
Prefetch 8deda85cbe81 for instr_id 1031918
Prefetch 8deda85d8c81 for instr_id 1031935
Prefetch 8deda85d8cc1 for instr_id 1032001
Prefetch 8deda85c8b81 for instr_id 1032139
Prefetch 8deda85cee41 for instr_id 1032142
Prefetch 8deda85cfe41 for instr_id 1032144
Prefetch 8deda85ec001 for instr_id 1032146
Prefetch 8deda85eab01 for instr_id 1032153
Prefetch 8deda85eab41 for instr_id 1032189
Prefetch 8deda85e9b01 for instr_id 1032152
Prefetch 8deda85e9b41 for instr_id 1032188
Prefetch 8deda85e9b81 for instr_id 1032380
Prefetch 8deda85eab81 for instr_id 1032381
Prefetch 8deda85e9bc1 for instr_id 1032572
Prefetch 8deda85eabc1 for instr_id 1032573
Prefetch 8deda85eb041 for instr_id 1032626
Prefetch 8deda85c8bc1 for instr_id 1032763
Prefetch 8ec426c6edc1 for instr_id 1032778
Prefetch 8deda85cbf01 for instr_id 1032779
Prefetch 8deda85d8d41 for instr_id 1032796
Prefetch 8deda85d8d81 for instr_id 1032862
Prefetch 8deda85ceec1 for instr_id 1033003
Prefetch 8deda85cfec1 for instr_id 1033005
Prefetch 8deda85ec041 for instr_id 1033007
Prefetch 8deda85ed301 for instr_id 1033014
Prefetch 8deda85ed341 for instr_id 1033110
Prefetch 8deda85ee301 for instr_id 1033013
Prefetch 8deda85ee341 for instr_id 1033109
Prefetch 8deda85ee381 for instr_id 1033301
Prefetch 8deda85ed381 for instr_id 1033302
Prefetch 8deda85eb081 for instr_id 1033487
Prefetch d8de3cc55901 for instr_id 1033642
Prefetch 8deda85c8c81 for instr_id 1033716
Prefetch 8deda85ef081 for instr_id 1033732
Prefetch 8deda85d8f81 for instr_id 1033749
Prefetch 8deda85d8fc1 for instr_id 1033815
Prefetch 8deda85c8cc1 for instr_id 1033953
Prefetch 8deda85ec101 for instr_id 1033960
Prefetch 8deda85f0041 for instr_id 1033956
Prefetch 8deda85f1041 for instr_id 1033958
Prefetch 8deda85f2181 for instr_id 1033967
Prefetch 8deda85f3181 for instr_id 1033966
Prefetch 8deda85f31c1 for instr_id 1034086
Prefetch 8deda85f21c1 for instr_id 1034087
Prefetch 8deda85f3201 for instr_id 1034278
Prefetch 8deda85f2201 for instr_id 1034279
Prefetch 8deda85eb141 for instr_id 1034440
Prefetch 8deda85c8d01 for instr_id 1034577
Prefetch 8ec426c6ee01 for instr_id 1034592
Prefetch 8deda85ef101 for instr_id 1034593
Prefetch 8deda85f4041 for instr_id 1034610
Prefetch 8deda85f4081 for instr_id 1034676
Prefetch 8deda85f00c1 for instr_id 1034820
Prefetch 8deda85f10c1 for instr_id 1034822
Prefetch 8deda85ec141 for instr_id 1034824
Prefetch 8deda85f2a81 for instr_id 1034831
Prefetch 8deda85f2ac1 for instr_id 1034843
Prefetch 8deda85f3a81 for instr_id 1034830
Prefetch 8deda85f3ac1 for instr_id 1034842
Prefetch 8deda85f3b01 for instr_id 1035034
Prefetch 8deda85f2b01 for instr_id 1035035
Prefetch 8deda85f3b41 for instr_id 1035226
Prefetch 8deda85f2b41 for instr_id 1035227
Prefetch 8deda85eb181 for instr_id 1035304
Prefetch 8deda85f3b81 for instr_id 1035451
Prefetch 8deda85f2b81 for instr_id 1035452
Prefetch 8deda85f3bc1 for instr_id 1035643
Prefetch 8deda85f2bc1 for instr_id 1035644
Prefetch 8deda85ef141 for instr_id 1035942
Prefetch 8deda85f40c1 for instr_id 1035990
Prefetch 8deda85c8d41 for instr_id 1036173
Prefetch 8deda85f1101 for instr_id 1036174
Prefetch 8deda85ec181 for instr_id 1036176
Prefetch 8deda85f2dc1 for instr_id 1036183
Prefetch 8deda85f3dc1 for instr_id 1036182
Prefetch 8deda85f3e01 for instr_id 1036350
Prefetch 8deda85f2e01 for instr_id 1036351
Prefetch 8deda85f3e41 for instr_id 1036542
Prefetch 8deda85f2e41 for instr_id 1036543
Prefetch 8deda85f0101 for instr_id 1036673
Prefetch 8deda85f3f01 for instr_id 1036683
Prefetch 8deda85f2f01 for instr_id 1036684
Prefetch 8deda85f3f41 for instr_id 1036875
Prefetch 8deda85f2f41 for instr_id 1036876
Prefetch 8deda85f3f81 for instr_id 1037067
Prefetch 8deda85f2f81 for instr_id 1037068
Prefetch 8deda85f3fc1 for instr_id 1037299
Prefetch 8deda85f2fc1 for instr_id 1037300
Prefetch 8deda85f5001 for instr_id 1037491
Prefetch 8deda85f6001 for instr_id 1037492
Prefetch 8ad3301ce0c1 for instr_id 1037679
Prefetch 8deda85ef181 for instr_id 1037801
Prefetch 8deda85f4101 for instr_id 1037818
Prefetch 8deda85f4141 for instr_id 1037884
Prefetch 8deda85f0141 for instr_id 1038025
Prefetch 8deda85f1141 for instr_id 1038027
Prefetch 8deda85f63c1 for instr_id 1038036
Prefetch 8deda85f53c1 for instr_id 1038035
Prefetch 8deda85f5401 for instr_id 1038131
Prefetch 8deda85f6401 for instr_id 1038132
Prefetch 8deda85f5441 for instr_id 1038323
Prefetch 8deda85f6441 for instr_id 1038324
Prefetch 8deda85eb1c1 for instr_id 1038509
Prefetch 8deda85c8d81 for instr_id 1038623
Prefetch 8deda85ef1c1 for instr_id 1038639
Prefetch 8deda85f4181 for instr_id 1038687
Prefetch 8deda85f1181 for instr_id 1038871
Prefetch 8deda85ec1c1 for instr_id 1038873
Prefetch 8deda85f6801 for instr_id 1038880
Prefetch 8deda85f6841 for instr_id 1038964
Prefetch 8deda85f5801 for instr_id 1038879
Prefetch 8deda85f5841 for instr_id 1038963
Prefetch 8deda85f5881 for instr_id 1039155
Prefetch 8deda85f6881 for instr_id 1039156
Prefetch 8deda85f0181 for instr_id 1039370
Prefetch 8deda85f58c1 for instr_id 1039380
Prefetch 8deda85f68c1 for instr_id 1039381
Prefetch 8deda85f5901 for instr_id 1039572
Prefetch 8deda85f6901 for instr_id 1039573
Prefetch 8deda85f5941 for instr_id 1039764
Prefetch 8deda85f6941 for instr_id 1039765
Prefetch 8deda85f5a81 for instr_id 1039888
Prefetch 8deda85f6a81 for instr_id 1039889
Prefetch d8de3c98e681 for instr_id 1039869
Prefetch 8deda85f5ac1 for instr_id 1040020
Prefetch 8deda85f6ac1 for instr_id 1040021
Prefetch 8deda85f5b01 for instr_id 1040212
Prefetch 8deda85f6b01 for instr_id 1040213
Prefetch d79e62ac9d81 for instr_id 1040449
Prefetch 8deda85c8dc1 for instr_id 1040506
Prefetch 8deda85ef241 for instr_id 1040522
Prefetch 8deda85f4201 for instr_id 1040539
Prefetch 8deda85f4241 for instr_id 1040570
Prefetch 8deda85f01c1 for instr_id 1040752
Prefetch 8deda85f1201 for instr_id 1040754
Prefetch 8deda85ec201 for instr_id 1040756
Prefetch 8deda85f71c1 for instr_id 1040762
Prefetch 8deda85f7201 for instr_id 1040846
Prefetch 8deda85f81c1 for instr_id 1040763
Prefetch 8deda85f8201 for instr_id 1040847
Prefetch 8deda85f7241 for instr_id 1041038
Prefetch 8deda85f8241 for instr_id 1041039
Prefetch 8deda85f0201 for instr_id 1041253
Prefetch 8deda85f7301 for instr_id 1041263
Prefetch 8deda85eb201 for instr_id 1041236
Prefetch 8deda85f8301 for instr_id 1041264
Prefetch 8deda85f7341 for instr_id 1041371
Prefetch 8deda85f8341 for instr_id 1041372
Prefetch 8deda85f7381 for instr_id 1041563
Prefetch 8deda85f8381 for instr_id 1041564
Prefetch 8ad3301c9581 for instr_id 1041751
Prefetch 8deda85f7441 for instr_id 1041770
Prefetch 8deda85f8441 for instr_id 1041771
Prefetch 8deda85f7481 for instr_id 1041902
Prefetch 8deda85f8481 for instr_id 1041903
Prefetch 8deda85f74c1 for instr_id 1042094
Prefetch 8deda85f84c1 for instr_id 1042095
Prefetch 98f5690fa301 for instr_id 1042258
Prefetch d79e62ac9dc1 for instr_id 1042652
Prefetch d8de3cc55981 for instr_id 1042842
Prefetch 8ec426c6ef01 for instr_id 1043000
Prefetch 8deda85f9201 for instr_id 1042985
Prefetch 8deda85ef941 for instr_id 1043001
Prefetch 8deda85f4c81 for instr_id 1043018
Prefetch 8deda85f4cc1 for instr_id 1043049
Prefetch 8deda85f9241 for instr_id 1043226
Prefetch 8deda85f0901 for instr_id 1043225
Prefetch 8deda85f1901 for instr_id 1043227
Prefetch 8deda85ec581 for instr_id 1043229
Prefetch 8deda85facc1 for instr_id 1043236
Prefetch 8deda85fbcc1 for instr_id 1043235
Prefetch 8deda85fbd01 for instr_id 1043367
Prefetch 8deda85fad01 for instr_id 1043368
Prefetch 8deda85fbd41 for instr_id 1043559
Prefetch 8deda85fad41 for instr_id 1043560
Prefetch 8deda85eb581 for instr_id 1043709
Prefetch 8deda85ef981 for instr_id 1043839
Prefetch 8deda85f4d01 for instr_id 1043856
Prefetch 8deda85f4d41 for instr_id 1043922
Prefetch 8deda85f1941 for instr_id 1044071
Prefetch 8deda85fae81 for instr_id 1044080
Prefetch 8deda85faec1 for instr_id 1044152
Prefetch 8deda85fbe81 for instr_id 1044079
Prefetch 8deda85fbec1 for instr_id 1044151
Prefetch 8deda85fbf01 for instr_id 1044343
Prefetch 8deda85faf01 for instr_id 1044344
Prefetch 8deda85fbf41 for instr_id 1044535
Prefetch 8deda85faf41 for instr_id 1044536
Prefetch 8deda85f0941 for instr_id 1044570
Prefetch 8deda85fbfc1 for instr_id 1044580
Prefetch 8deda85fc001 for instr_id 1044676
Prefetch 8deda85fafc1 for instr_id 1044581
Prefetch 8deda85fd001 for instr_id 1044677
Prefetch 8deda85fc041 for instr_id 1044868
Prefetch 8deda85fd041 for instr_id 1044869
Prefetch 8deda85eb5c1 for instr_id 1045054
Prefetch 98f5690f2a81 for instr_id 1045068
Prefetch 8deda85fc101 for instr_id 1045087
Prefetch 8deda85fd101 for instr_id 1045088
Prefetch 8deda85fc141 for instr_id 1045207
Prefetch 8deda85fd141 for instr_id 1045208
Prefetch 8deda85fc181 for instr_id 1045399
Prefetch 8deda85fd181 for instr_id 1045400
Prefetch ea2062ed441 for instr_id 1045576
Prefetch 8deda85f9281 for instr_id 1045682
Prefetch 8deda85ef9c1 for instr_id 1045698
Prefetch 8deda85f4d81 for instr_id 1045746
Prefetch 8deda85f0981 for instr_id 1045922
Prefetch 8deda85f1981 for instr_id 1045924
Prefetch 8deda85ec5c1 for instr_id 1045926
Prefetch 8deda85fd681 for instr_id 1045933
Prefetch 8deda85fc681 for instr_id 1045932
Prefetch 8deda85fc6c1 for instr_id 1046064
Prefetch 8deda85fd6c1 for instr_id 1046065
Prefetch 8deda85fc701 for instr_id 1046256
Prefetch 8deda85fd701 for instr_id 1046257
Prefetch d79e62ac9e01 for instr_id 1046486
Prefetch 8deda85f9301 for instr_id 1046589
Prefetch 8ec426c6ef41 for instr_id 1046604
Prefetch 8deda85efac1 for instr_id 1046605
Prefetch 8deda85f4ec1 for instr_id 1046622
Prefetch 8deda85f4f01 for instr_id 1046653
Prefetch 8deda85f0a81 for instr_id 1046829
Prefetch 8deda85f1a81 for instr_id 1046831
Prefetch 8deda85ec641 for instr_id 1046833
Prefetch 8deda85fea01 for instr_id 1046840
Prefetch 8deda85ffa01 for instr_id 1046839
Prefetch 8deda85ffa41 for instr_id 1046971
Prefetch 8deda85fea41 for instr_id 1046972
Prefetch 8deda85ffa81 for instr_id 1047163
Prefetch 8deda85fea81 for instr_id 1047164
Prefetch 8deda85f9341 for instr_id 1047307
Prefetch 8deda85eb641 for instr_id 1047313
Prefetch 8deda85efb01 for instr_id 1047443
Prefetch 8deda85f4f41 for instr_id 1047460
Prefetch 8deda85f4f81 for instr_id 1047526
Prefetch 8deda85f0ac1 for instr_id 1047667
Prefetch 8deda85f1ac1 for instr_id 1047669
Prefetch 8deda85feec1 for instr_id 1047678
Prefetch 8deda85fef01 for instr_id 1047714
Prefetch 8deda85ffec1 for instr_id 1047677
Prefetch 8deda85fff01 for instr_id 1047713
Prefetch 8deda85fff41 for instr_id 1047905
Prefetch 8deda85fef41 for instr_id 1047906
Prefetch 8deda85fff81 for instr_id 1048097
Prefetch 8deda85fef81 for instr_id 1048098
Prefetch 8deda85eb681 for instr_id 1048151
Prefetch 8deda85f9381 for instr_id 1048288
Prefetch 8deda85efb81 for instr_id 1048304
Prefetch 8deda8600001 for instr_id 1048321
Prefetch 8deda8600041 for instr_id 1048387
Prefetch 8deda85f0b01 for instr_id 1048528
Prefetch 8deda85f1b41 for instr_id 1048530
Prefetch 8deda85ec681 for instr_id 1048532
Prefetch 8deda8601641 for instr_id 1048539
Prefetch 8deda8602641 for instr_id 1048538
Prefetch 8deda8602681 for instr_id 1048718
Prefetch 8deda8601681 for instr_id 1048719
Prefetch 8deda86026c1 for instr_id 1048910
Prefetch 8deda86016c1 for instr_id 1048911
Prefetch 8deda85f93c1 for instr_id 1049126
Prefetch 8deda85efbc1 for instr_id 1049142
Prefetch 8deda8600081 for instr_id 1049190
Prefetch 8deda85f0b81 for instr_id 1049366
Prefetch 8deda85f1b81 for instr_id 1049368
Prefetch 8deda85ec6c1 for instr_id 1049370
Prefetch 8deda8601cc1 for instr_id 1049377
Prefetch 8deda8601d01 for instr_id 1049401
Prefetch 8deda8602cc1 for instr_id 1049376
Prefetch 8deda8602d01 for instr_id 1049400
Prefetch 8deda8602d41 for instr_id 1049592
Prefetch 8deda8601d41 for instr_id 1049593
Prefetch 8deda8602d81 for instr_id 1049784
Prefetch 8deda8601d81 for instr_id 1049785
Prefetch 8deda85eb6c1 for instr_id 1049850
Prefetch 8deda85efc01 for instr_id 1049980
Prefetch 8deda86000c1 for instr_id 1049997
Prefetch 8deda8600101 for instr_id 1050063
Prefetch 8deda85f9401 for instr_id 1050216
Prefetch 8deda85f1bc1 for instr_id 1050215
Prefetch 8deda8602f41 for instr_id 1050223
Prefetch 8deda8602f81 for instr_id 1050295
Prefetch 8deda8601f41 for instr_id 1050224
Prefetch 8deda8601f81 for instr_id 1050296
Prefetch 8deda8602fc1 for instr_id 1050487
Prefetch 8deda8601fc1 for instr_id 1050488
Prefetch 8deda8603001 for instr_id 1050679
Prefetch 8deda8604001 for instr_id 1050680
Prefetch 8deda8603041 for instr_id 1050904
Prefetch 8deda8604041 for instr_id 1050905
Prefetch 8deda8603081 for instr_id 1051096
Prefetch 8deda8604081 for instr_id 1051097
Prefetch 98f569130801 for instr_id 1051213
Prefetch 8deda85f0bc1 for instr_id 1051222
Prefetch 8deda86030c1 for instr_id 1051328
Prefetch 8deda86040c1 for instr_id 1051329
Prefetch 8deda8603101 for instr_id 1051520
Prefetch 8deda8604101 for instr_id 1051521
Prefetch 8deda85eb701 for instr_id 1051706
Prefetch 98f569102c41 for instr_id 1051721
Prefetch 8deda8603141 for instr_id 1051752
Prefetch 8deda8604141 for instr_id 1051753
Prefetch 8deda8603181 for instr_id 1051944
Prefetch 8deda8604181 for instr_id 1051945
Prefetch 8deda86031c1 for instr_id 1052136
Prefetch 8deda86041c1 for instr_id 1052137
Prefetch 98f569108641 for instr_id 1052228
Prefetch 8deda85efc41 for instr_id 1052350
Prefetch 8deda8600141 for instr_id 1052398
Prefetch 8deda85f0c01 for instr_id 1052574
Prefetch 8deda85f1c01 for instr_id 1052576
Prefetch 8deda85ec701 for instr_id 1052578
Prefetch 8deda8604741 for instr_id 1052585
Prefetch 8deda8603741 for instr_id 1052584
Prefetch 8deda8603781 for instr_id 1052716
Prefetch 8deda8604781 for instr_id 1052717
Prefetch 8deda86037c1 for instr_id 1052908
Prefetch 8deda86047c1 for instr_id 1052909
Prefetch 8deda85f9481 for instr_id 1053218
Prefetch 8ec426c6ef81 for instr_id 1053233
Prefetch 8deda85efd01 for instr_id 1053234
Prefetch 8deda8600241 for instr_id 1053251
Prefetch 8deda8600281 for instr_id 1053317
Prefetch 8deda85f0c81 for instr_id 1053461
Prefetch 8deda85f1c81 for instr_id 1053463
Prefetch 8deda85ec741 for instr_id 1053465
Prefetch 8deda8605241 for instr_id 1053472
Prefetch 8deda8606241 for instr_id 1053471
Prefetch 8deda8606281 for instr_id 1053627
Prefetch 8deda8605281 for instr_id 1053628
Prefetch 8deda86062c1 for instr_id 1053819
Prefetch 8deda86052c1 for instr_id 1053820
Prefetch 8deda85f0cc1 for instr_id 1053962
Prefetch 8deda85f1cc1 for instr_id 1053964
Prefetch 8deda85eb741 for instr_id 1053945
Prefetch 8deda86055c1 for instr_id 1053973
Prefetch 8deda8605601 for instr_id 1054009
Prefetch 8deda86065c1 for instr_id 1053972
Prefetch 8deda8606601 for instr_id 1054008
Prefetch 8deda8606641 for instr_id 1054200
Prefetch 8deda8605641 for instr_id 1054201
Prefetch 8deda8606681 for instr_id 1054392
Prefetch 8deda8605681 for instr_id 1054393
Prefetch 8deda85eb781 for instr_id 1054446
Prefetch 8deda85efd41 for instr_id 1054583
Prefetch 8deda86002c1 for instr_id 1054631
Prefetch 8deda85f94c1 for instr_id 1054808
Prefetch 8deda85f0d01 for instr_id 1054807
Prefetch 8deda85f1d01 for instr_id 1054809
Prefetch 8deda85ec781 for instr_id 1054811
Prefetch 8deda8605981 for instr_id 1054818
Prefetch 8deda86059c1 for instr_id 1054926
Prefetch 8deda8606981 for instr_id 1054817
Prefetch 8deda86069c1 for instr_id 1054925
Prefetch 8deda8606a01 for instr_id 1055117
Prefetch 8deda8605a01 for instr_id 1055118
Prefetch 8deda85efd81 for instr_id 1055421
Prefetch 8deda8600301 for instr_id 1055438
Prefetch 8deda8600341 for instr_id 1055504
Prefetch 8deda85f1d41 for instr_id 1055647
Prefetch 8deda8606d41 for instr_id 1055655
Prefetch 8deda8605d41 for instr_id 1055656
Prefetch 8deda8606d81 for instr_id 1055835
Prefetch 8deda8605d81 for instr_id 1055836
Prefetch 8deda8606dc1 for instr_id 1056027
Prefetch 8deda8605dc1 for instr_id 1056028
Prefetch 8deda85f9501 for instr_id 1056243
Prefetch 8deda85efdc1 for instr_id 1056259
Prefetch 8deda8600381 for instr_id 1056307
Prefetch 8deda85f0d81 for instr_id 1056483
Prefetch 8deda85f1d81 for instr_id 1056485
Prefetch 8deda85ec7c1 for instr_id 1056487
Prefetch 8deda8607481 for instr_id 1056494
Prefetch 8deda8608481 for instr_id 1056493
Prefetch 8deda86084c1 for instr_id 1056625
Prefetch 8deda86074c1 for instr_id 1056626
Prefetch 8deda8608501 for instr_id 1056817
Prefetch 8deda8607501 for instr_id 1056818
Prefetch 8deda85eb7c1 for instr_id 1056967
Prefetch d79e62ac9e41 for instr_id 1057047
Prefetch 8deda85f95c1 for instr_id 1057173
Prefetch 8ec426c6efc1 for instr_id 1057188
Prefetch 8deda85eff01 for instr_id 1057189
Prefetch 8deda8600541 for instr_id 1057206
Prefetch 8deda8600581 for instr_id 1057272
Prefetch 8deda85f0ec1 for instr_id 1057413
Prefetch 8deda85f1ec1 for instr_id 1057415
Prefetch 8deda85ec841 for instr_id 1057417
Prefetch 8deda8609b81 for instr_id 1057424
Prefetch 8deda8609bc1 for instr_id 1057436
Prefetch 8deda860ab81 for instr_id 1057423
Prefetch 8deda860abc1 for instr_id 1057435
Prefetch 8deda860ac01 for instr_id 1057627
Prefetch 8deda8609c01 for instr_id 1057628
Prefetch 8deda860ac41 for instr_id 1057819
Prefetch 8deda8609c41 for instr_id 1057820
Prefetch 8deda85eb881 for instr_id 1057897
Prefetch d8de3cc55a01 for instr_id 1058051
Prefetch 8deda85f9681 for instr_id 1058103
Prefetch 8deda860b041 for instr_id 1058119
Prefetch 8deda8600701 for instr_id 1058136
Prefetch 8deda8600741 for instr_id 1058167
Prefetch 8deda85ec901 for instr_id 1058347
Prefetch 8deda860c001 for instr_id 1058343
Prefetch 8deda860d001 for instr_id 1058345
Prefetch 8deda860e541 for instr_id 1058354
Prefetch 8deda860f541 for instr_id 1058353
Prefetch 8deda860f581 for instr_id 1058485
Prefetch 8deda860e581 for instr_id 1058486
Prefetch 8deda860f5c1 for instr_id 1058677
Prefetch 8deda860e5c1 for instr_id 1058678
Prefetch 8deda85eb901 for instr_id 1058827
Prefetch 8deda860b081 for instr_id 1058957
Prefetch 8deda8600781 for instr_id 1058974
Prefetch 8deda86007c1 for instr_id 1059040
Prefetch 8deda85f96c1 for instr_id 1059178
Prefetch 8deda860d041 for instr_id 1059183
Prefetch 8deda860c041 for instr_id 1059181
Prefetch 8deda860fa01 for instr_id 1059191
Prefetch 8deda860fa41 for instr_id 1059227
Prefetch 8deda860ea01 for instr_id 1059192
Prefetch 8deda860ea41 for instr_id 1059228
Prefetch 8deda860fa81 for instr_id 1059419
Prefetch 8deda860ea81 for instr_id 1059420
Prefetch 8deda860fac1 for instr_id 1059611
Prefetch 8deda860eac1 for instr_id 1059612
Prefetch 8deda85eb941 for instr_id 1059665
Prefetch 8deda85f9701 for instr_id 1059802
Prefetch 8deda8610001 for instr_id 1059817
Prefetch 8deda860b101 for instr_id 1059818
Prefetch 8deda8600841 for instr_id 1059835
Prefetch 8deda8600881 for instr_id 1059901
Prefetch 8deda85ec941 for instr_id 1060046
Prefetch 8deda860c0c1 for instr_id 1060042
Prefetch 8deda860d0c1 for instr_id 1060044
Prefetch 8deda8611201 for instr_id 1060053
Prefetch 8deda8611241 for instr_id 1060149
Prefetch 8deda8612201 for instr_id 1060052
Prefetch 8deda8612241 for instr_id 1060148
Prefetch 8deda8612281 for instr_id 1060340
Prefetch 8deda8611281 for instr_id 1060341
Prefetch 8deda85eb981 for instr_id 1060526
Prefetch 8deda85f9781 for instr_id 1060686
Prefetch 8deda860b1c1 for instr_id 1060702
Prefetch 8deda8600941 for instr_id 1060719
Prefetch 8deda8600981 for instr_id 1060750
Prefetch 8deda860d141 for instr_id 1060934
Prefetch 8deda860c141 for instr_id 1060932
Prefetch 8deda85ec9c1 for instr_id 1060936
Prefetch 8deda8612e41 for instr_id 1060942
Prefetch 8deda8611e41 for instr_id 1060943
Prefetch 8deda8612e81 for instr_id 1061086
Prefetch 8deda8611e81 for instr_id 1061087
Prefetch 8deda8612ec1 for instr_id 1061278
Prefetch 8deda8611ec1 for instr_id 1061279
Prefetch 8deda860c181 for instr_id 1061433
Prefetch 8deda860d181 for instr_id 1061435
Prefetch 8deda85eb9c1 for instr_id 1061416
Prefetch 8deda8613141 for instr_id 1061444
Prefetch 8deda8613181 for instr_id 1061552
Prefetch 8deda8614141 for instr_id 1061443
Prefetch 8deda8614181 for instr_id 1061551
Prefetch 8deda86141c1 for instr_id 1061743
Prefetch 8deda86131c1 for instr_id 1061744
Prefetch 8deda8614281 for instr_id 1061951
Prefetch 8deda8613281 for instr_id 1061952
Prefetch 8ad3301be201 for instr_id 1061932
Prefetch 8deda86142c1 for instr_id 1062083
Prefetch 8deda86132c1 for instr_id 1062084
Prefetch 8deda8614301 for instr_id 1062275
Prefetch 8deda8613301 for instr_id 1062276
Prefetch 98f569130b01 for instr_id 1062439
Prefetch 8deda860b201 for instr_id 1062561
Prefetch 8deda86009c1 for instr_id 1062578
Prefetch 8deda8600a01 for instr_id 1062644
Prefetch 8deda85f97c1 for instr_id 1062791
Prefetch 8deda860d1c1 for instr_id 1062790
Prefetch 8deda8613441 for instr_id 1062799
Prefetch 8deda8613481 for instr_id 1062871
Prefetch 8deda8614441 for instr_id 1062798
Prefetch 8deda8614481 for instr_id 1062870
Prefetch 8deda86144c1 for instr_id 1063062
Prefetch 8deda86134c1 for instr_id 1063063
Prefetch 8deda8614501 for instr_id 1063254
Prefetch 8deda8613501 for instr_id 1063255
Prefetch 8deda8614541 for instr_id 1063479
Prefetch 8deda8613541 for instr_id 1063480
Prefetch 8deda8614581 for instr_id 1063671
Prefetch 8deda8613581 for instr_id 1063672
Prefetch 98f569130641 for instr_id 1063787
Prefetch d79e62ac9e81 for instr_id 1063836
Prefetch 8deda860b241 for instr_id 1063909
Prefetch 8deda8600a41 for instr_id 1063957
Prefetch 8deda85eca01 for instr_id 1064137
Prefetch 8deda860c201 for instr_id 1064133
Prefetch 8deda860d201 for instr_id 1064135
Prefetch 8deda8613b81 for instr_id 1064144
Prefetch 8deda8613bc1 for instr_id 1064168
Prefetch 8deda8614b81 for instr_id 1064143
Prefetch 8deda8614bc1 for instr_id 1064167
Prefetch 8deda8614c01 for instr_id 1064359
Prefetch 8deda8613c01 for instr_id 1064360
Prefetch 8deda8614c41 for instr_id 1064551
Prefetch 8deda8613c41 for instr_id 1064552
Prefetch 8deda85eba01 for instr_id 1064617
Prefetch 8deda85f9841 for instr_id 1064777
Prefetch 8deda8610041 for instr_id 1064792
Prefetch 8deda860b301 for instr_id 1064793
Prefetch 8deda8600b41 for instr_id 1064810
Prefetch 8deda8600b81 for instr_id 1064876
Prefetch 8deda860d2c1 for instr_id 1065019
Prefetch 8deda860c2c1 for instr_id 1065017
Prefetch 8deda85eca41 for instr_id 1065021
Prefetch 8deda8616ac1 for instr_id 1065027
Prefetch 8deda8616b01 for instr_id 1065063
Prefetch 8deda8615ac1 for instr_id 1065028
Prefetch 8deda8615b01 for instr_id 1065064
Prefetch 8deda8616b41 for instr_id 1065255
Prefetch 8deda8615b41 for instr_id 1065256
Prefetch 8deda8616b81 for instr_id 1065447
Prefetch 8deda8615b81 for instr_id 1065448
Prefetch 8deda85eba81 for instr_id 1065501
Prefetch d79e62ac9ec1 for instr_id 1065834
Prefetch 8deda85f9b01 for instr_id 1066006
Prefetch 8deda86100c1 for instr_id 1066021
Prefetch 8deda860b781 for instr_id 1066022
Prefetch 8deda8617201 for instr_id 1066039
Prefetch 8deda8617241 for instr_id 1066105
Prefetch 8deda860c701 for instr_id 1066249
Prefetch 8deda860d701 for instr_id 1066251
Prefetch 8deda85ecc81 for instr_id 1066253
Prefetch 8deda8618e41 for instr_id 1066260
Prefetch 8deda8618e81 for instr_id 1066308
Prefetch 8deda8619e41 for instr_id 1066259
Prefetch 8deda8619e81 for instr_id 1066307
Prefetch 8deda8619ec1 for instr_id 1066499
Prefetch 8deda8618ec1 for instr_id 1066500
Prefetch 8deda8619f01 for instr_id 1066691
Prefetch 8deda8618f01 for instr_id 1066692
Prefetch 8deda860d741 for instr_id 1066752
Prefetch 8deda860c741 for instr_id 1066750
Prefetch 8deda861b281 for instr_id 1066760
Prefetch 8deda861b2c1 for instr_id 1066796
Prefetch 8deda861a281 for instr_id 1066761
Prefetch 8deda861a2c1 for instr_id 1066797
Prefetch 8deda85ebc81 for instr_id 1066733
Prefetch 8deda861b301 for instr_id 1066988
Prefetch 8deda861a301 for instr_id 1066989
Prefetch 8deda861b341 for instr_id 1067180
Prefetch 8deda861a341 for instr_id 1067181
Prefetch 8deda85ebcc1 for instr_id 1067234
Prefetch 8deda85f9b41 for instr_id 1067348
Prefetch 8deda860b7c1 for instr_id 1067364
Prefetch 8deda8617281 for instr_id 1067412
Prefetch 8deda85eccc1 for instr_id 1067601
Prefetch 8deda861a3c1 for instr_id 1067608
Prefetch 8deda861b3c1 for instr_id 1067607
Prefetch 8deda861b401 for instr_id 1067667
Prefetch 8deda861a401 for instr_id 1067668
Prefetch 8deda861b441 for instr_id 1067859
Prefetch 8deda861a441 for instr_id 1067860
Prefetch 8deda861b481 for instr_id 1068051
Prefetch 8deda861a481 for instr_id 1068052
Prefetch 8deda860d781 for instr_id 1068100
Prefetch 8deda861a501 for instr_id 1068109
Prefetch 8deda861b501 for instr_id 1068108
Prefetch 8deda861b541 for instr_id 1068192
Prefetch 8deda861a541 for instr_id 1068193
Prefetch 8deda861b581 for instr_id 1068384
Prefetch 8deda861a581 for instr_id 1068385
Prefetch 8deda861b5c1 for instr_id 1068608
Prefetch 8deda860c781 for instr_id 1068598
Prefetch 8deda861a5c1 for instr_id 1068609
Prefetch 8deda861b601 for instr_id 1068800
Prefetch 8deda861a601 for instr_id 1068801
Prefetch 8deda861b641 for instr_id 1068992
Prefetch 8deda861a641 for instr_id 1068993
Prefetch 8deda861a781 for instr_id 1069109
Prefetch 8deda861b781 for instr_id 1069108
Prefetch 8deda861b7c1 for instr_id 1069240
Prefetch 8deda861a7c1 for instr_id 1069241
Prefetch 8deda861b801 for instr_id 1069432
Prefetch 8deda861a801 for instr_id 1069433
Prefetch 8deda860b801 for instr_id 1069711
Prefetch 8deda86172c1 for instr_id 1069728
Prefetch 8deda8617301 for instr_id 1069794
Prefetch 8deda85f9b81 for instr_id 1069938
Prefetch 8deda861b8c1 for instr_id 1069945
Prefetch 8deda861a8c1 for instr_id 1069946
Prefetch 8deda861b901 for instr_id 1070101
Prefetch 8deda861a901 for instr_id 1070102
Prefetch 8deda861b941 for instr_id 1070293
Prefetch 8deda861a941 for instr_id 1070294
Prefetch d8de3cc55a81 for instr_id 1070481
Prefetch 8deda860b841 for instr_id 1070549
Prefetch 8deda8617341 for instr_id 1070597
Prefetch 8deda85ecd01 for instr_id 1070777
Prefetch 8deda860c801 for instr_id 1070773
Prefetch 8deda860d801 for instr_id 1070775
Prefetch 8deda861c141 for instr_id 1070783
Prefetch 8deda861d141 for instr_id 1070784
Prefetch 8deda861c181 for instr_id 1070915
Prefetch 8deda861d181 for instr_id 1070916
Prefetch 8deda861c1c1 for instr_id 1071107
Prefetch 8deda861d1c1 for instr_id 1071108
Prefetch 8deda85ebd01 for instr_id 1071257
Prefetch 8deda860b881 for instr_id 1071387
Prefetch 8deda8617381 for instr_id 1071404
Prefetch 8deda86173c1 for instr_id 1071470
Prefetch 8deda85f9bc1 for instr_id 1071611
Prefetch 8deda860c841 for instr_id 1071614
Prefetch 8deda860d841 for instr_id 1071616
Prefetch 8deda861d441 for instr_id 1071625
Prefetch 8deda861d481 for instr_id 1071721
Prefetch 8deda861c441 for instr_id 1071624
Prefetch 8deda861c481 for instr_id 1071720
Prefetch 8deda861c4c1 for instr_id 1071912
Prefetch 8deda861d4c1 for instr_id 1071913
Prefetch 8deda861c581 for instr_id 1072125
Prefetch 8deda861d581 for instr_id 1072126
Prefetch 8deda85ebd41 for instr_id 1072098
Prefetch 8deda861c5c1 for instr_id 1072245
Prefetch 8deda861d5c1 for instr_id 1072246
Prefetch 8deda861c601 for instr_id 1072437
Prefetch 8deda861d601 for instr_id 1072438
Prefetch 8deda85f9c01 for instr_id 1072735
Prefetch 8deda8610101 for instr_id 1072750
Prefetch 8deda860b901 for instr_id 1072751
Prefetch 8deda8617441 for instr_id 1072768
Prefetch 8deda8617481 for instr_id 1072834
Prefetch 8deda860c881 for instr_id 1072984
Prefetch 8deda860d8c1 for instr_id 1072986
Prefetch 8deda85ecd41 for instr_id 1072988
Prefetch 8deda861dcc1 for instr_id 1072995
Prefetch 8deda861dd01 for instr_id 1073067
Prefetch 8deda861ccc1 for instr_id 1072994
Prefetch 8deda861cd01 for instr_id 1073066
Prefetch 8deda861cd41 for instr_id 1073258
Prefetch 8deda861dd41 for instr_id 1073259
Prefetch 8deda861cd81 for instr_id 1073450
Prefetch 8deda861dd81 for instr_id 1073451
Prefetch 8deda861cdc1 for instr_id 1073675
Prefetch 8deda861ddc1 for instr_id 1073676
Prefetch 8deda861ce01 for instr_id 1073867
Prefetch 8deda861de01 for instr_id 1073868
Prefetch 8deda860c8c1 for instr_id 1073992
Prefetch 8deda861ce41 for instr_id 1074098
Prefetch 8deda861de41 for instr_id 1074099
Prefetch 8deda861ce81 for instr_id 1074290
Prefetch 8deda861de81 for instr_id 1074291
Prefetch 8deda85ebd81 for instr_id 1074476
Prefetch 8deda861dfc1 for instr_id 1074511
Prefetch 8deda861cfc1 for instr_id 1074510
Prefetch 8deda861e001 for instr_id 1074546
Prefetch 8deda861f001 for instr_id 1074547
Prefetch 8deda861e041 for instr_id 1074738
Prefetch 8deda861f041 for instr_id 1074739
Prefetch 8deda861e081 for instr_id 1074930
Prefetch 8deda861f081 for instr_id 1074931
Prefetch 8deda85f9c41 for instr_id 1075120
Prefetch 8deda860b981 for instr_id 1075136
Prefetch 8deda8617501 for instr_id 1075153
Prefetch 8deda8617541 for instr_id 1075219
Prefetch 8deda860c941 for instr_id 1075360
Prefetch 8deda860d941 for instr_id 1075362
Prefetch 8deda85ecd81 for instr_id 1075364
Prefetch 8deda861f841 for instr_id 1075371
Prefetch 8deda861f881 for instr_id 1075383
Prefetch 8deda861e841 for instr_id 1075370
Prefetch 8deda861e881 for instr_id 1075382
Prefetch 8deda861e8c1 for instr_id 1075574
Prefetch 8deda861f8c1 for instr_id 1075575
Prefetch 8deda861e901 for instr_id 1075766
Prefetch 8deda861f901 for instr_id 1075767
Prefetch 8deda85ebdc1 for instr_id 1075844
Prefetch 8deda85f9c81 for instr_id 1075981
Prefetch 8deda860ba01 for instr_id 1075997
Prefetch 8deda86175c1 for instr_id 1076014
Prefetch 8deda8617601 for instr_id 1076080
Prefetch 8deda85f9cc1 for instr_id 1076224
Prefetch 8deda860c9c1 for instr_id 1076221
Prefetch 8deda860d9c1 for instr_id 1076223
Prefetch 8deda85ecdc1 for instr_id 1076225
Prefetch 8deda86212c1 for instr_id 1076231
Prefetch 8deda8621301 for instr_id 1076351
Prefetch 8deda86202c1 for instr_id 1076232
Prefetch 8deda8620301 for instr_id 1076352
Prefetch 8deda8621341 for instr_id 1076543
Prefetch 8deda8620341 for instr_id 1076544
Prefetch 8deda85ebe01 for instr_id 1076705
Prefetch d79e62ac9f01 for instr_id 1076762
Prefetch 8deda85f9d01 for instr_id 1076865
Prefetch 8deda8610141 for instr_id 1076880
Prefetch 8deda860bac1 for instr_id 1076881
Prefetch 8deda86176c1 for instr_id 1076898
Prefetch 8deda8617701 for instr_id 1076929
Prefetch 8deda860ca81 for instr_id 1077105
Prefetch 8deda860da81 for instr_id 1077107
Prefetch 8deda85ece41 for instr_id 1077109
Prefetch 8deda8622201 for instr_id 1077116
Prefetch 8deda8623201 for instr_id 1077115
Prefetch 8deda8623241 for instr_id 1077247
Prefetch 8deda8622241 for instr_id 1077248
Prefetch 8deda8623281 for instr_id 1077439
Prefetch 8deda8622281 for instr_id 1077440
Prefetch 8deda85f9d41 for instr_id 1077583
Prefetch 8deda85ebe41 for instr_id 1077589
Prefetch 8deda860bb01 for instr_id 1077719
Prefetch 8deda8617741 for instr_id 1077736
Prefetch 8deda8617781 for instr_id 1077802
Prefetch 8deda860dac1 for instr_id 1077948
Prefetch 8deda8622481 for instr_id 1077957
Prefetch 8deda8623481 for instr_id 1077956
Prefetch 8deda86234c1 for instr_id 1078136
Prefetch 8deda86224c1 for instr_id 1078137
Prefetch 8deda8623501 for instr_id 1078328
Prefetch 8deda8622501 for instr_id 1078329
Prefetch 8deda860cac1 for instr_id 1078447
Prefetch 8deda86236c1 for instr_id 1078457
Prefetch 8deda8623701 for instr_id 1078493
Prefetch 8deda8622701 for instr_id 1078494
Prefetch 8deda8623741 for instr_id 1078685
Prefetch 8deda8622741 for instr_id 1078686
Prefetch 8deda8623781 for instr_id 1078877
Prefetch 8deda8622781 for instr_id 1078878
Prefetch 8deda85ebe81 for instr_id 1078931
Prefetch d8de3c9b3881 for instr_id 1078945
Prefetch 8deda85f9d81 for instr_id 1079074
Prefetch 8deda860bb81 for instr_id 1079090
Prefetch 8deda8617801 for instr_id 1079107
Prefetch 8deda8617841 for instr_id 1079173
Prefetch 8deda85ece81 for instr_id 1079318
Prefetch 8deda860cb01 for instr_id 1079314
Prefetch 8deda860db41 for instr_id 1079316
Prefetch 8deda8622e41 for instr_id 1079325
Prefetch 8deda8623e41 for instr_id 1079324
Prefetch 8deda8623e81 for instr_id 1079504
Prefetch 8deda8622e81 for instr_id 1079505
Prefetch 8deda8623ec1 for instr_id 1079696
Prefetch 8deda8622ec1 for instr_id 1079697
Prefetch 8deda85f9e01 for instr_id 1079981
Prefetch 8deda860bc81 for instr_id 1079997
Prefetch 8deda8617981 for instr_id 1080014
Prefetch 8deda86179c1 for instr_id 1080080
Prefetch 8deda85f9e41 for instr_id 1080218
Prefetch 8deda860cc41 for instr_id 1080221
Prefetch 8deda860dc41 for instr_id 1080223
Prefetch 8deda85ecf01 for instr_id 1080225
Prefetch 8deda8624241 for instr_id 1080232
Prefetch 8deda8625241 for instr_id 1080231
Prefetch 8deda8625281 for instr_id 1080327
Prefetch 8deda8624281 for instr_id 1080328
Prefetch 8deda86252c1 for instr_id 1080519
Prefetch 8deda86242c1 for instr_id 1080520
Prefetch 8deda85ebf41 for instr_id 1080705
Prefetch 8deda8610181 for instr_id 1080834
Prefetch 8deda860bcc1 for instr_id 1080835
Prefetch 8deda8617a01 for instr_id 1080883
Prefetch 8deda860cc81 for instr_id 1081059
Prefetch 8deda860dc81 for instr_id 1081061
Prefetch 8deda85ecf41 for instr_id 1081063
Prefetch 8deda8624901 for instr_id 1081070
Prefetch 8deda8625901 for instr_id 1081069
Prefetch 8deda8625941 for instr_id 1081201
Prefetch 8deda8624941 for instr_id 1081202
Prefetch 8deda8625981 for instr_id 1081393
Prefetch 8deda8624981 for instr_id 1081394
Prefetch 8deda85f9e81 for instr_id 1081537
Prefetch 8deda860bd01 for instr_id 1081673
Prefetch 8deda8617a41 for instr_id 1081690
Prefetch 8deda8617a81 for instr_id 1081756
Prefetch 8deda86259c1 for instr_id 1081958
Prefetch 8deda86249c1 for instr_id 1081959
Prefetch 8deda8625a01 for instr_id 1082150
Prefetch 8deda8624a01 for instr_id 1082151
Prefetch 8deda8625a41 for instr_id 1082342
Prefetch 8deda8624a41 for instr_id 1082343
Prefetch 8deda860dcc1 for instr_id 1082403
Prefetch 8deda860ccc1 for instr_id 1082401
Prefetch 8deda8625dc1 for instr_id 1082411
Prefetch 8deda8625e01 for instr_id 1082447
Prefetch 8deda8624dc1 for instr_id 1082412
Prefetch 8deda8624e01 for instr_id 1082448
Prefetch 8deda8625e41 for instr_id 1082639
Prefetch 8deda8624e41 for instr_id 1082640
Prefetch 8deda8625e81 for instr_id 1082831
Prefetch 8deda8624e81 for instr_id 1082832
Prefetch 8deda85ebf81 for instr_id 1082885
Prefetch 8deda860bd41 for instr_id 1083014
Prefetch 8deda8617ac1 for instr_id 1083062
Prefetch 8deda85f9ec1 for instr_id 1083242
Prefetch 8deda860dd01 for instr_id 1083243
Prefetch 8deda85ecf81 for instr_id 1083245
Prefetch 8deda8626041 for instr_id 1083252
Prefetch 8deda8626081 for instr_id 1083336
Prefetch 8deda8627041 for instr_id 1083251
Prefetch 8deda8627081 for instr_id 1083335
Prefetch 8deda86270c1 for instr_id 1083527
Prefetch 8deda86260c1 for instr_id 1083528
Prefetch 8deda860cd01 for instr_id 1083742
Prefetch 8deda8627201 for instr_id 1083752
Prefetch 8deda8627241 for instr_id 1083776
Prefetch 8deda8626201 for instr_id 1083753
Prefetch 8deda8626241 for instr_id 1083777
Prefetch 8deda8627281 for instr_id 1083968
Prefetch 8deda8626281 for instr_id 1083969
Prefetch 8deda86272c1 for instr_id 1084160
Prefetch 8deda86262c1 for instr_id 1084161
Prefetch 98f569130f41 for instr_id 1084240
Prefetch 8deda860bd81 for instr_id 1084362
Prefetch 8deda8617b01 for instr_id 1084379
Prefetch 8deda8617b41 for instr_id 1084445
Prefetch 8deda860cd41 for instr_id 1084586
Prefetch 8deda860dd41 for instr_id 1084588
Prefetch 8deda8626781 for instr_id 1084597
Prefetch 8deda86267c1 for instr_id 1084633
Prefetch 8deda8627781 for instr_id 1084596
Prefetch 8deda86277c1 for instr_id 1084632
Prefetch 8deda8627801 for instr_id 1084824
Prefetch 8deda8626801 for instr_id 1084825
Prefetch 8deda8627841 for instr_id 1085016
Prefetch 8deda8626841 for instr_id 1085017
Prefetch 8deda85f9f01 for instr_id 1085184
Prefetch 8deda85ebfc1 for instr_id 1085070
Prefetch 8deda860bdc1 for instr_id 1085200
Prefetch 8deda8617b81 for instr_id 1085248
Prefetch 8deda85ecfc1 for instr_id 1085431
Prefetch 8deda8627881 for instr_id 1085581
Prefetch 8deda8626881 for instr_id 1085582
Prefetch 8deda86278c1 for instr_id 1085773
Prefetch 8deda86268c1 for instr_id 1085774
Prefetch 8deda860dd81 for instr_id 1085930
Prefetch 8deda860cd81 for instr_id 1085928
Prefetch 8deda8627bc1 for instr_id 1085938
Prefetch 8deda8627c01 for instr_id 1085962
Prefetch 8deda8626bc1 for instr_id 1085939
Prefetch 8deda8626c01 for instr_id 1085963
Prefetch 8deda8627c41 for instr_id 1086154
Prefetch 8deda8626c41 for instr_id 1086155
Prefetch 8deda8627c81 for instr_id 1086346
Prefetch 8deda8626c81 for instr_id 1086347
Prefetch 8deda860be01 for instr_id 1086541
Prefetch 8deda8617bc1 for instr_id 1086558
Prefetch 8deda8617c01 for instr_id 1086624
Prefetch 8deda85f9f41 for instr_id 1086768
Prefetch 8deda860ddc1 for instr_id 1086767
Prefetch 8deda8627f01 for instr_id 1086775
Prefetch 8deda8626f01 for instr_id 1086776
Prefetch 8deda8627f41 for instr_id 1086955
Prefetch 8deda8626f41 for instr_id 1086956
Prefetch 8deda8627f81 for instr_id 1087147
Prefetch 8deda8626f81 for instr_id 1087148
Prefetch d79e62ac9f41 for instr_id 1087306
Prefetch 8deda860be41 for instr_id 1087379
Prefetch 8deda8617c41 for instr_id 1087427
Prefetch 8deda860ce01 for instr_id 1087606
Prefetch 8deda860de01 for instr_id 1087608
Prefetch 8deda8628001 for instr_id 1087610
Prefetch 8deda8629581 for instr_id 1087617
Prefetch 8deda86295c1 for instr_id 1087641
Prefetch 8deda862a581 for instr_id 1087616
Prefetch 8deda862a5c1 for instr_id 1087640
Prefetch 8deda862a601 for instr_id 1087832
Prefetch 8deda8629601 for instr_id 1087833
Prefetch 8deda862a641 for instr_id 1088024
Prefetch 8deda8629641 for instr_id 1088025
Prefetch 8deda862b001 for instr_id 1088090
Prefetch 8deda862a681 for instr_id 1088249
Prefetch 8deda8629681 for instr_id 1088250
Prefetch 8deda862a6c1 for instr_id 1088441
Prefetch 8deda86296c1 for instr_id 1088442
Prefetch 98f5690febc1 for instr_id 1088606
Prefetch 8deda860be81 for instr_id 1088728
Prefetch 8deda8617c81 for instr_id 1088745
Prefetch 8deda8617cc1 for instr_id 1088811
Prefetch 8deda85f9f81 for instr_id 1088955
Prefetch 8deda862a781 for instr_id 1088968
Prefetch 8deda8629781 for instr_id 1088969
Prefetch 8deda862a7c1 for instr_id 1089124
Prefetch 8deda86297c1 for instr_id 1089125
Prefetch 8deda862a801 for instr_id 1089316
Prefetch 8deda8629801 for instr_id 1089317
Prefetch 8deda860de41 for instr_id 1089461
Prefetch 8deda86298c1 for instr_id 1089470
Prefetch 8deda862a8c1 for instr_id 1089469
Prefetch 8deda862a901 for instr_id 1089649
Prefetch 8deda8629901 for instr_id 1089650
Prefetch 8deda862a941 for instr_id 1089841
Prefetch 8deda8629941 for instr_id 1089842
Prefetch 8deda860ce41 for instr_id 1089966
Prefetch 8deda862ab01 for instr_id 1089976
Prefetch 8deda862ab41 for instr_id 1090012
Prefetch 8deda8629b01 for instr_id 1089977
Prefetch 8deda8629b41 for instr_id 1090013
Prefetch 8deda862ab81 for instr_id 1090204
Prefetch 8deda8629b81 for instr_id 1090205
Prefetch 8deda862abc1 for instr_id 1090396
Prefetch 8deda8629bc1 for instr_id 1090397
Prefetch 8deda862b041 for instr_id 1090450
Prefetch 8deda85f9fc1 for instr_id 1090610
Prefetch 8deda86101c1 for instr_id 1090625
Prefetch 8deda860bf41 for instr_id 1090626
Prefetch 8deda8617d81 for instr_id 1090643
Prefetch 8deda8617dc1 for instr_id 1090674
Prefetch 8deda862c001 for instr_id 1090857
Prefetch 8deda860cec1 for instr_id 1090856
Prefetch 8deda8628081 for instr_id 1090860
Prefetch 8deda860df01 for instr_id 1090858
Prefetch 8deda862d741 for instr_id 1090867
Prefetch 8deda862d781 for instr_id 1090951
Prefetch 8deda862e741 for instr_id 1090866
Prefetch 8deda862e781 for instr_id 1090950
Prefetch 8deda862e7c1 for instr_id 1091142
Prefetch 8deda862d7c1 for instr_id 1091143
Prefetch 8deda860cf01 for instr_id 1091357
Prefetch 8deda862b081 for instr_id 1091340
Prefetch 8deda862e801 for instr_id 1091367
Prefetch 8deda862d801 for instr_id 1091368
Prefetch 8deda862e841 for instr_id 1091559
Prefetch 8deda862d841 for instr_id 1091560
Prefetch 8deda862e881 for instr_id 1091751
Prefetch 8deda862d881 for instr_id 1091752
Prefetch 8deda862e8c1 for instr_id 1091976
Prefetch 8deda862d8c1 for instr_id 1091977
Prefetch 8deda862e901 for instr_id 1092168
Prefetch 8deda862d901 for instr_id 1092169
Prefetch d8de3c98f401 for instr_id 1092356
Prefetch 8deda860bf81 for instr_id 1092478
Prefetch 8deda8617e01 for instr_id 1092495
Prefetch 8deda8617e41 for instr_id 1092561
Prefetch 8deda860df41 for instr_id 1092704
Prefetch 8deda860cf41 for instr_id 1092702
Prefetch 8deda862ed41 for instr_id 1092712
Prefetch 8deda862ed81 for instr_id 1092724
Prefetch 8deda862dd41 for instr_id 1092713
Prefetch 8deda862dd81 for instr_id 1092725
Prefetch 8deda862edc1 for instr_id 1092916
Prefetch 8deda862ddc1 for instr_id 1092917
Prefetch 8deda862ee01 for instr_id 1093108
Prefetch 8deda862de01 for instr_id 1093109
Prefetch 8deda862b0c1 for instr_id 1093186
Prefetch 8deda862c041 for instr_id 1093300
Prefetch 8deda860bfc1 for instr_id 1093316
Prefetch 8deda8617e81 for instr_id 1093364
Prefetch 8deda86280c1 for instr_id 1093550
Prefetch 8deda862dfc1 for instr_id 1093557
Prefetch 8deda862efc1 for instr_id 1093556
Prefetch 8deda862f001 for instr_id 1093616
Prefetch 8deda8630001 for instr_id 1093617
Prefetch 8deda862f041 for instr_id 1093808
Prefetch 8deda8630041 for instr_id 1093809
Prefetch 8deda862f081 for instr_id 1094000
Prefetch 8deda8630081 for instr_id 1094001
Prefetch 8deda860cf81 for instr_id 1094047
Prefetch 8deda860df81 for instr_id 1094049
Prefetch 8deda86301c1 for instr_id 1094058
Prefetch 8deda862f1c1 for instr_id 1094057
Prefetch 8deda862f201 for instr_id 1094249
Prefetch 8deda8630201 for instr_id 1094250
Prefetch 8deda862f241 for instr_id 1094441
Prefetch 8deda8630241 for instr_id 1094442
Prefetch 8deda862f381 for instr_id 1094565
Prefetch 8deda8630381 for instr_id 1094566
Prefetch 98f569108941 for instr_id 1094546
Prefetch 8deda862f3c1 for instr_id 1094697
Prefetch 8deda86303c1 for instr_id 1094698
Prefetch 8deda862f401 for instr_id 1094889
Prefetch 8deda8630401 for instr_id 1094890
Prefetch 98f5690fa381 for instr_id 1095053
Prefetch 8deda8631001 for instr_id 1095175
Prefetch 8deda8617ec1 for instr_id 1095192
Prefetch 8deda8617f01 for instr_id 1095258
Prefetch 8deda862c081 for instr_id 1095402
Prefetch 8deda860cfc1 for instr_id 1095399
Prefetch 8deda860dfc1 for instr_id 1095401
Prefetch 8deda8630841 for instr_id 1095410
Prefetch 8deda862f841 for instr_id 1095409
Prefetch 8deda862f881 for instr_id 1095445
Prefetch 8deda8630881 for instr_id 1095446
Prefetch 8deda862f8c1 for instr_id 1095637
Prefetch 8deda86308c1 for instr_id 1095638
Prefetch 8deda862f901 for instr_id 1095829
Prefetch 8deda8630901 for instr_id 1095830
Prefetch d8de3cc55b01 for instr_id 1095945
Prefetch 8deda862b101 for instr_id 1095883
Prefetch 8deda8631041 for instr_id 1096013
Prefetch 8deda8617f41 for instr_id 1096061
Prefetch 8deda8628101 for instr_id 1096241
Prefetch 8deda8632001 for instr_id 1096237
Prefetch 8deda8633001 for instr_id 1096239
Prefetch 8deda8630d41 for instr_id 1096248
Prefetch 8deda862fd41 for instr_id 1096247
Prefetch 8deda862fd81 for instr_id 1096379
Prefetch 8deda8630d81 for instr_id 1096380
Prefetch 8deda862fdc1 for instr_id 1096571
Prefetch 8deda8630dc1 for instr_id 1096572
Prefetch 8deda8631081 for instr_id 1096851
Prefetch 8deda8617f81 for instr_id 1096868
Prefetch 8deda8617fc1 for instr_id 1096934
Prefetch 8deda862c0c1 for instr_id 1097075
Prefetch 8deda862fe81 for instr_id 1097088
Prefetch 8deda8630e81 for instr_id 1097089
Prefetch 8deda862fec1 for instr_id 1097244
Prefetch 8deda8630ec1 for instr_id 1097245
Prefetch 8deda862ff01 for instr_id 1097436
Prefetch 8deda8630f01 for instr_id 1097437
Prefetch 8deda8632041 for instr_id 1097579
Prefetch 8deda8633041 for instr_id 1097581
Prefetch 8deda8634201 for instr_id 1097590
Prefetch 8deda8634241 for instr_id 1097626
Prefetch 8deda8635201 for instr_id 1097589
Prefetch 8deda8635241 for instr_id 1097625
Prefetch 8deda8635281 for instr_id 1097817
Prefetch 8deda8634281 for instr_id 1097818
Prefetch 8deda86352c1 for instr_id 1098009
Prefetch 8deda86342c1 for instr_id 1098010
Prefetch 8deda862b141 for instr_id 1098063
Prefetch 98f5690fa401 for instr_id 1098078
Prefetch 8deda862c181 for instr_id 1098299
Prefetch 8deda8610201 for instr_id 1098314
Prefetch 8deda8631201 for instr_id 1098315
Prefetch 8deda86361c1 for instr_id 1098332
Prefetch 8deda8636201 for instr_id 1098398
Prefetch 8deda862c1c1 for instr_id 1098542
Prefetch 8deda86321c1 for instr_id 1098539
Prefetch 8deda86331c1 for instr_id 1098541
Prefetch 8deda86281c1 for instr_id 1098543
Prefetch 8deda8637f41 for instr_id 1098550
Prefetch 8deda8637f81 for instr_id 1098586
Prefetch 8deda8638f41 for instr_id 1098549
Prefetch 8deda8638f81 for instr_id 1098585
Prefetch 8deda8638fc1 for instr_id 1098777
Prefetch 8deda8637fc1 for instr_id 1098778
Prefetch 8deda8639001 for instr_id 1098969
Prefetch 8deda863a001 for instr_id 1098970
Prefetch d79e62ac9f81 for instr_id 1099080
Prefetch 8deda862b201 for instr_id 1099023
Prefetch 8deda862c2c1 for instr_id 1099275
Prefetch 8deda8610241 for instr_id 1099290
Prefetch 8deda86313c1 for instr_id 1099291
Prefetch 8deda8636441 for instr_id 1099308
Prefetch 8deda8636481 for instr_id 1099339
Prefetch 8deda8632341 for instr_id 1099524
Prefetch 8deda8633381 for instr_id 1099526
Prefetch 8deda86282c1 for instr_id 1099528
Prefetch 8deda863be81 for instr_id 1099535
Prefetch 8deda863ce81 for instr_id 1099534
Prefetch 8deda863cec1 for instr_id 1099702
Prefetch 8deda863bec1 for instr_id 1099703
Prefetch 8deda863cf01 for instr_id 1099894
Prefetch 8deda863bf01 for instr_id 1099895
Prefetch 8deda862b2c1 for instr_id 1100008
Prefetch 8deda863bf41 for instr_id 1100120
Prefetch 8deda863cf41 for instr_id 1100119
Prefetch 8deda863cf81 for instr_id 1100311
Prefetch 8deda863bf81 for instr_id 1100312
Prefetch 8deda8632381 for instr_id 1100532
Prefetch 8deda863d041 for instr_id 1100542
Prefetch 8deda863d081 for instr_id 1100650
Prefetch 8deda863e041 for instr_id 1100543
Prefetch 8deda863d0c1 for instr_id 1100842
Prefetch 8deda863e0c1 for instr_id 1100843
Prefetch 8deda863d101 for instr_id 1101066
Prefetch 8deda863e101 for instr_id 1101067
Prefetch 8deda863d141 for instr_id 1101258
Prefetch 8deda863e141 for instr_id 1101259
Prefetch 8deda863d181 for instr_id 1101450
Prefetch 8deda863e181 for instr_id 1101451
Prefetch 8deda8631401 for instr_id 1101653
Prefetch 8deda86364c1 for instr_id 1101670
Prefetch 8deda8636501 for instr_id 1101736
Prefetch 8deda862c301 for instr_id 1101883
Prefetch 8deda863d201 for instr_id 1101890
Prefetch 8deda863d241 for instr_id 1101938
Prefetch 8deda863e201 for instr_id 1101891
Prefetch 8deda863e241 for instr_id 1101939
Prefetch 8deda863d281 for instr_id 1102130
Prefetch 8deda863e281 for instr_id 1102131
Prefetch 8deda863d2c1 for instr_id 1102322
Prefetch 8deda863e2c1 for instr_id 1102323
Prefetch 8deda86323c1 for instr_id 1102381
Prefetch 8deda86333c1 for instr_id 1102383
Prefetch 8deda863e501 for instr_id 1102392
Prefetch 8deda863e541 for instr_id 1102404
Prefetch 8deda863d501 for instr_id 1102391
Prefetch 8deda863d541 for instr_id 1102403
Prefetch 8deda863d581 for instr_id 1102595
Prefetch 8deda863e581 for instr_id 1102596
Prefetch 8deda863d5c1 for instr_id 1102787
Prefetch 8deda863e5c1 for instr_id 1102788
Prefetch 8deda862b301 for instr_id 1102865
Prefetch 98f5690faf81 for instr_id 1102880
Prefetch 8deda8631481 for instr_id 1103025
Prefetch 8deda8636581 for instr_id 1103042
Prefetch 8deda86365c1 for instr_id 1103108
Prefetch 8deda862c341 for instr_id 1103246
Prefetch 8deda8632441 for instr_id 1103249
Prefetch 8deda8633441 for instr_id 1103251
Prefetch 8deda8628301 for instr_id 1103253
Prefetch 8deda863f001 for instr_id 1103260
Prefetch 8deda863f041 for instr_id 1103296
Prefetch 8deda8640001 for instr_id 1103259
Prefetch 8deda8640041 for instr_id 1103295
Prefetch 8deda8640081 for instr_id 1103487
Prefetch 8deda863f081 for instr_id 1103488
Prefetch 8deda86400c1 for instr_id 1103679
Prefetch 8deda863f0c1 for instr_id 1103680
Prefetch 8deda862b341 for instr_id 1103733
Prefetch 8deda862c381 for instr_id 1103870
Prefetch 8deda8610281 for instr_id 1103885
Prefetch 8deda8631501 for instr_id 1103886
Prefetch 8deda8636641 for instr_id 1103903
Prefetch 8deda8636681 for instr_id 1103969
Prefetch 8deda8632481 for instr_id 1104113
Prefetch 8deda86334c1 for instr_id 1104115
Prefetch 8deda8628341 for instr_id 1104117
Prefetch 8deda863f781 for instr_id 1104124
Prefetch 8deda8640781 for instr_id 1104123
Prefetch 8deda86407c1 for instr_id 1104303
Prefetch 8deda863f7c1 for instr_id 1104304
Prefetch 8deda8640801 for instr_id 1104495
Prefetch 8deda863f801 for instr_id 1104496
Prefetch 8deda86324c1 for instr_id 1104614
Prefetch 8deda86409c1 for instr_id 1104624
Prefetch 8deda8640a01 for instr_id 1104660
Prefetch 8deda863f9c1 for instr_id 1104625
Prefetch 8deda863fa01 for instr_id 1104661
Prefetch 8deda8640a41 for instr_id 1104852
Prefetch 8deda863fa41 for instr_id 1104853
Prefetch 8deda8640a81 for instr_id 1105044
Prefetch 8deda863fa81 for instr_id 1105045
Prefetch 8deda862b381 for instr_id 1105098
Prefetch 8deda862c401 for instr_id 1105264
Prefetch 8deda86315c1 for instr_id 1105280
Prefetch 8deda8636741 for instr_id 1105297
Prefetch 8deda8636781 for instr_id 1105328
Prefetch 8deda8632541 for instr_id 1105507
Prefetch 8deda8633541 for instr_id 1105509
Prefetch 8deda86283c1 for instr_id 1105511
Prefetch 8deda8641441 for instr_id 1105518
Prefetch 8deda8642441 for instr_id 1105517
Prefetch 8deda8642481 for instr_id 1105661
Prefetch 8deda8641481 for instr_id 1105662
Prefetch 8deda86424c1 for instr_id 1105853
Prefetch 8deda86414c1 for instr_id 1105854
Prefetch 8deda8632581 for instr_id 1106008
Prefetch 8deda8633581 for instr_id 1106010
Prefetch 8deda862b3c1 for instr_id 1105991
Prefetch 8deda8641741 for instr_id 1106019
Prefetch 8deda8641781 for instr_id 1106127
Prefetch 8deda8642741 for instr_id 1106018
Prefetch 8deda8642781 for instr_id 1106126
Prefetch 8deda86427c1 for instr_id 1106318
Prefetch 8deda86417c1 for instr_id 1106319
Prefetch d79e62ac9fc1 for instr_id 1106579
Prefetch d8de3cc55b81 for instr_id 1106769
Prefetch 8deda8644001 for instr_id 1106947
Prefetch 8deda862c701 for instr_id 1107050
Prefetch 8deda8610341 for instr_id 1107065
Prefetch 8deda8631ac1 for instr_id 1107066
Prefetch 8deda8636ec1 for instr_id 1107083
Prefetch 8deda8636f01 for instr_id 1107114
Prefetch 8deda8632a41 for instr_id 1107299
Prefetch 8deda8633a41 for instr_id 1107301
Prefetch 8deda8628641 for instr_id 1107303
Prefetch 8deda86455c1 for instr_id 1107310
Prefetch 8deda86465c1 for instr_id 1107309
Prefetch 8deda8646601 for instr_id 1107453
Prefetch 8deda8645601 for instr_id 1107454
Prefetch 8deda8646641 for instr_id 1107645
Prefetch 8deda8645641 for instr_id 1107646
Prefetch 8deda862c741 for instr_id 1107777
Prefetch 8deda8633a81 for instr_id 1107802
Prefetch 8deda8645701 for instr_id 1107811
Prefetch 8deda862b641 for instr_id 1107783
Prefetch 8deda8646701 for instr_id 1107810
Prefetch 8deda8646741 for instr_id 1107978
Prefetch 8deda8645741 for instr_id 1107979
Prefetch 8deda8646781 for instr_id 1108170
Prefetch 8deda8645781 for instr_id 1108171
Prefetch 8deda8632a81 for instr_id 1108307
Prefetch d8de3c98b801 for instr_id 1108298
Prefetch 8deda86468c1 for instr_id 1108317
Prefetch 8deda8646901 for instr_id 1108425
Prefetch 8deda86458c1 for instr_id 1108318
Prefetch 8deda8645901 for instr_id 1108438
Prefetch 8deda8646941 for instr_id 1108617
Prefetch 8deda8645941 for instr_id 1108618
Prefetch d8de3c98a681 for instr_id 1108805
Prefetch 8deda8646981 for instr_id 1108848
Prefetch 8deda8645981 for instr_id 1108849
Prefetch 8deda86469c1 for instr_id 1109040
Prefetch 8deda86459c1 for instr_id 1109041
Prefetch 8deda8646a01 for instr_id 1109232
Prefetch 8deda8645a01 for instr_id 1109233
Prefetch 8deda8631b01 for instr_id 1109427
Prefetch 8deda8636f41 for instr_id 1109444
Prefetch 8deda8636f81 for instr_id 1109510
Prefetch 8deda8646a81 for instr_id 1109664
Prefetch 8deda8646ac1 for instr_id 1109712
Prefetch 8deda8645a81 for instr_id 1109665
Prefetch 8deda8645ac1 for instr_id 1109713
Prefetch 8deda8646b01 for instr_id 1109904
Prefetch 8deda8645b01 for instr_id 1109905
Prefetch 8deda8646b41 for instr_id 1110096
Prefetch 8deda8645b41 for instr_id 1110097
Prefetch 8deda8633ac1 for instr_id 1110157
Prefetch 8deda8645c81 for instr_id 1110166
Prefetch 8deda8646c81 for instr_id 1110165
Prefetch 8deda8646cc1 for instr_id 1110345
Prefetch 8deda8645cc1 for instr_id 1110346
Prefetch 8deda8646d01 for instr_id 1110537
Prefetch 8deda8645d01 for instr_id 1110538
Prefetch 8deda862c781 for instr_id 1110776
Prefetch 8deda8631b81 for instr_id 1110792
Prefetch 8deda8647001 for instr_id 1110809
Prefetch 8deda8647041 for instr_id 1110875
Prefetch 8deda8633b41 for instr_id 1111018
Prefetch 8deda8628681 for instr_id 1111020
Prefetch 8deda8632b41 for instr_id 1111016
Prefetch 8deda8648881 for instr_id 1111026
Prefetch 8deda86488c1 for instr_id 1111062
Prefetch 8deda8649881 for instr_id 1111027
Prefetch 8deda86498c1 for instr_id 1111063
Prefetch 8deda8648901 for instr_id 1111254
Prefetch 8deda8649901 for instr_id 1111255
Prefetch 8deda8648941 for instr_id 1111446
Prefetch 8deda8649941 for instr_id 1111447
Prefetch 8deda862b6c1 for instr_id 1111500
Prefetch 8deda862c801 for instr_id 1111683
Prefetch 8deda8631c81 for instr_id 1111699
Prefetch 8deda8647181 for instr_id 1111716
Prefetch 8deda86471c1 for instr_id 1111782
Prefetch 8deda862c841 for instr_id 1111920
Prefetch 8deda8632c41 for instr_id 1111923
Prefetch 8deda8628701 for instr_id 1111927
Prefetch 8deda8633c41 for instr_id 1111925
Prefetch 8deda864aac1 for instr_id 1111934
Prefetch 8deda864ab01 for instr_id 1111946
Prefetch 8deda864bac1 for instr_id 1111933
Prefetch 8deda864bb01 for instr_id 1111945
Prefetch 8deda864bb41 for instr_id 1112137
Prefetch 8deda864ab41 for instr_id 1112138
Prefetch 8deda864bb81 for instr_id 1112329
Prefetch 8deda864ab81 for instr_id 1112330
Prefetch 8deda862b741 for instr_id 1112407
Prefetch 8deda8610381 for instr_id 1112536
Prefetch 8deda8631cc1 for instr_id 1112537
Prefetch 8deda8647201 for instr_id 1112585
Prefetch 8deda8633c81 for instr_id 1112763
Prefetch 8deda8628741 for instr_id 1112765
Prefetch 8deda8632c81 for instr_id 1112761
Prefetch 8deda864c101 for instr_id 1112771
Prefetch 8deda864d101 for instr_id 1112772
Prefetch 8deda864c141 for instr_id 1112903
Prefetch 8deda864d141 for instr_id 1112904
Prefetch 8deda864c181 for instr_id 1113095
Prefetch 8deda864d181 for instr_id 1113096
Prefetch 8deda862c881 for instr_id 1113239
Prefetch 8deda8631d41 for instr_id 1113398
Prefetch 8deda8647281 for instr_id 1113415
Prefetch 8deda86472c1 for instr_id 1113446
Prefetch 8deda862c8c1 for instr_id 1113626
Prefetch 8deda8632cc1 for instr_id 1113625
Prefetch 8deda8628781 for instr_id 1113629
Prefetch 8deda8633d01 for instr_id 1113627
Prefetch 8deda864d841 for instr_id 1113636
Prefetch 8deda864d881 for instr_id 1113720
Prefetch 8deda864c841 for instr_id 1113635
Prefetch 8deda864c881 for instr_id 1113719
Prefetch 8deda864c8c1 for instr_id 1113911
Prefetch 8deda864d8c1 for instr_id 1113912
Prefetch 8deda8632d01 for instr_id 1114126
Prefetch 8deda864cac1 for instr_id 1114136
Prefetch 8deda862b781 for instr_id 1114109
Prefetch 8deda864dac1 for instr_id 1114137
Prefetch 8deda864cb01 for instr_id 1114268
Prefetch 8deda864db01 for instr_id 1114269
Prefetch 8deda864cb41 for instr_id 1114460
Prefetch 8deda864db41 for instr_id 1114461
Prefetch 8deda8631d81 for instr_id 1114746
Prefetch 8deda8647301 for instr_id 1114763
Prefetch 8deda8647341 for instr_id 1114829
Prefetch 8deda864cb81 for instr_id 1115031
Prefetch 8deda864db81 for instr_id 1115032
Prefetch 8deda864cbc1 for instr_id 1115223
Prefetch 8deda864dbc1 for instr_id 1115224
Prefetch 8deda864cc01 for instr_id 1115415
Prefetch 8deda864dc01 for instr_id 1115416
Prefetch 8deda8632d41 for instr_id 1115474
Prefetch 8deda8633d41 for instr_id 1115476
Prefetch 8deda864df81 for instr_id 1115485
Prefetch 8deda864cf81 for instr_id 1115484
Prefetch 8deda864cfc1 for instr_id 1115520
Prefetch 8deda864dfc1 for instr_id 1115521
Prefetch 8deda864e001 for instr_id 1115712
Prefetch 8deda864f001 for instr_id 1115713
Prefetch 8deda864e041 for instr_id 1115904
Prefetch 8deda864f041 for instr_id 1115905
Prefetch 8deda862b7c1 for instr_id 1115958
Prefetch 8ad3301bed01 for instr_id 1115972
Prefetch 8deda862c901 for instr_id 1116101
Prefetch 8deda8631e01 for instr_id 1116117
Prefetch 8deda86473c1 for instr_id 1116134
Prefetch 8deda8647401 for instr_id 1116200
Prefetch 8deda862c941 for instr_id 1116344
Prefetch 8deda8633dc1 for instr_id 1116343
Prefetch 8deda8632d81 for instr_id 1116341
Prefetch 8deda86287c1 for instr_id 1116345
Prefetch 8deda864e641 for instr_id 1116351
Prefetch 8deda864e681 for instr_id 1116423
Prefetch 8deda864f641 for instr_id 1116352
Prefetch 8deda864f681 for instr_id 1116424
Prefetch 8deda864e6c1 for instr_id 1116615
Prefetch 8deda864f6c1 for instr_id 1116616
Prefetch 8deda864e701 for instr_id 1116807
Prefetch 8deda864f701 for instr_id 1116808
Prefetch 8deda8644041 for instr_id 1116882
Prefetch 8deda8631e41 for instr_id 1116955
Prefetch 8deda8647441 for instr_id 1117003
Prefetch 8deda8632dc1 for instr_id 1117182
Prefetch 8deda8628801 for instr_id 1117186
Prefetch 8deda8633e01 for instr_id 1117184
Prefetch 8deda864fbc1 for instr_id 1117193
Prefetch 8deda864ebc1 for instr_id 1117192
Prefetch 8deda864ec01 for instr_id 1117276
Prefetch 8deda864fc01 for instr_id 1117277
Prefetch 8deda864ec41 for instr_id 1117468
Prefetch 8deda864fc41 for instr_id 1117469
Prefetch 8deda8632e01 for instr_id 1117683
Prefetch 8deda864ed81 for instr_id 1117693
Prefetch 8deda864edc1 for instr_id 1117717
Prefetch 8deda862b801 for instr_id 1117666
Prefetch 8deda864fd81 for instr_id 1117694
Prefetch 8deda864fdc1 for instr_id 1117718
Prefetch 8deda864ee01 for instr_id 1117909
Prefetch 8deda864fe01 for instr_id 1117910
Prefetch 8deda864ee41 for instr_id 1118101
Prefetch 8deda864fe41 for instr_id 1118102
Prefetch 8deda862c9c1 for instr_id 1118333
Prefetch 8deda86103c1 for instr_id 1118348
Prefetch 8deda8631f01 for instr_id 1118349
Prefetch 8deda8647541 for instr_id 1118366
Prefetch 8deda8647581 for instr_id 1118432
Prefetch 8deda8633ec1 for instr_id 1118575
Prefetch 8deda8628841 for instr_id 1118577
Prefetch 8deda8632ec1 for instr_id 1118573
Prefetch 8deda8650cc1 for instr_id 1118583
Prefetch 8deda8650d01 for instr_id 1118619
Prefetch 8deda8651cc1 for instr_id 1118584
Prefetch 8deda8651d01 for instr_id 1118620
Prefetch 8deda8650d41 for instr_id 1118811
Prefetch 8deda8651d41 for instr_id 1118812
Prefetch 8deda8650d81 for instr_id 1119003
Prefetch 8deda8651d81 for instr_id 1119004
Prefetch 8deda862b881 for instr_id 1119057
Prefetch d8de3cc55c01 for instr_id 1119211
Prefetch 8deda862ca81 for instr_id 1119263
Prefetch 8deda8652041 for instr_id 1119279
Prefetch 8deda8647701 for instr_id 1119296
Prefetch 8deda8647741 for instr_id 1119327
Prefetch 8deda8628901 for instr_id 1119507
Prefetch 8deda8653001 for instr_id 1119503
Prefetch 8deda8654001 for instr_id 1119505
Prefetch 8deda8655481 for instr_id 1119514
Prefetch 8deda86554c1 for instr_id 1119538
Prefetch 8deda8656481 for instr_id 1119513
[...]
Prefetch d79e62ac9001 for instr_id 1950306
Prefetch d8de3cbc7c81 for instr_id 1950343
Prefetch d79e62ac9041 for instr_id 1950436
Prefetch d8de3cbc7d01 for instr_id 1950471
Prefetch d79e62ac9081 for instr_id 1950558
Prefetch d8de3cbc7d81 for instr_id 1950593
Prefetch d79e62ac90c1 for instr_id 1950690
Prefetch d8de3cbc7e01 for instr_id 1950753
Prefetch d79e62ac9101 for instr_id 1950816
Prefetch d8de3cbc7e81 for instr_id 1950849
Prefetch d79e62ac9141 for instr_id 1950948
Prefetch d8de3cbc7f01 for instr_id 1950997
Prefetch d79e62ac9181 for instr_id 1951076
Prefetch d8de3cbc7f81 for instr_id 1951125
Prefetch d79e62ac91c1 for instr_id 1951212
Prefetch ee30bb974001 for instr_id 1951251
Prefetch d79e62ac9201 for instr_id 1951348
Prefetch ee30bb974041 for instr_id 1951385
Prefetch d79e62ac9241 for instr_id 1951488
Prefetch ee30bb974081 for instr_id 1951525
Prefetch d79e62ac9281 for instr_id 1951626
Prefetch ee30bb9740c1 for instr_id 1951663
Prefetch d79e62ac92c1 for instr_id 1951752
Prefetch ee30bb974101 for instr_id 1951797
Prefetch d79e62ac9301 for instr_id 1951874
Prefetch d79e62ac9341 for instr_id 1951990
Prefetch d79e62ac9381 for instr_id 1952102
Prefetch d79e62ac93c1 for instr_id 1952214
Prefetch ee30bb974201 for instr_id 1952294
Prefetch d79e62ac9401 for instr_id 1952332
Prefetch d79e62ac9441 for instr_id 1952446
Prefetch ee30bb974281 for instr_id 1952519
Prefetch d79e62ac9481 for instr_id 1952560
Prefetch d79e62ac94c1 for instr_id 1952672
Prefetch d79e62ac9501 for instr_id 1952784
Prefetch ee30bb974301 for instr_id 1952801
Prefetch ee30bb974341 for instr_id 1952852
Prefetch d79e62ac9541 for instr_id 1952902
Prefetch d79e62ac9581 for instr_id 1953014
Prefetch ee30bb9743c1 for instr_id 1953122
Prefetch d79e62ac95c1 for instr_id 1953128
Prefetch ee30bb974401 for instr_id 1953187
Prefetch d79e62ac9601 for instr_id 1953244
Prefetch ee30bb974441 for instr_id 1953324
Prefetch d79e62ac9641 for instr_id 1953358
Prefetch ee30bb974481 for instr_id 1953396
Prefetch d79e62ac9681 for instr_id 1953476
Prefetch d79e62ac96c1 for instr_id 1953588
Prefetch d79e62ac9701 for instr_id 1953700
Prefetch ee30bb974501 for instr_id 1953710
Prefetch ee30bb974541 for instr_id 1953735
Prefetch d79e62ac9741 for instr_id 1953820
Prefetch ee30bb974581 for instr_id 1953914
Prefetch d79e62ac9781 for instr_id 1953938
Prefetch d79e62ac97c1 for instr_id 1954050
Prefetch ee30bb974601 for instr_id 1954144
Prefetch d79e62ac9801 for instr_id 1954164
Prefetch ee30bb974641 for instr_id 1954272
Prefetch d79e62ac9841 for instr_id 1954278
Prefetch ee30bb974681 for instr_id 1954325
Prefetch d79e62ac9881 for instr_id 1954396
Prefetch ee30bb9746c1 for instr_id 1954443
Prefetch d79e62ac98c1 for instr_id 1954514
Prefetch ee30bb974701 for instr_id 1954603
Prefetch d79e62ac9901 for instr_id 1954632
Prefetch ee30bb974741 for instr_id 1954700
Prefetch d79e62ac9941 for instr_id 1954750
Prefetch ee30bb974781 for instr_id 1954804
Prefetch d79e62ac9981 for instr_id 1954872
Prefetch ee30bb9747c1 for instr_id 1954905
Prefetch d79e62ac99c1 for instr_id 1954996
Prefetch ee30bb974801 for instr_id 1955027
Prefetch d79e62ac9a01 for instr_id 1955118
Prefetch ee30bb974841 for instr_id 1955149
Prefetch d79e62ac9a41 for instr_id 1955244
Prefetch ee30bb974881 for instr_id 1955303
Prefetch d79e62ac9a81 for instr_id 1955364
Prefetch ee30bb9748c1 for instr_id 1955401
Prefetch d79e62ac9ac1 for instr_id 1955484
Prefetch ee30bb974901 for instr_id 1955515
Prefetch d79e62ac9b01 for instr_id 1955602
Prefetch ee30bb974941 for instr_id 1955689
Prefetch d79e62ac9b41 for instr_id 1955716
Prefetch ee30bb974981 for instr_id 1955784
Prefetch d79e62ac9b81 for instr_id 1955836
Prefetch ee30bb9749c1 for instr_id 1955874
Prefetch d79e62ac9bc1 for instr_id 1955958
Prefetch d79e62ac9c01 for instr_id 1956072
Prefetch ee30bb974a01 for instr_id 1956096
Prefetch ee30bb974a41 for instr_id 1956105
Prefetch d79e62ac9c41 for instr_id 1956194
Prefetch ee30bb974a81 for instr_id 1956246
Prefetch d79e62ac9c81 for instr_id 1956314
Prefetch d79e62ac9cc1 for instr_id 1956442
Prefetch ee30bb974b01 for instr_id 1956484
Prefetch d79e62ac9d01 for instr_id 1956566
Prefetch ee30bb974b41 for instr_id 1956601
Prefetch d79e62ac9d41 for instr_id 1956702
Prefetch ee30bb974b81 for instr_id 1956772
Prefetch ee30bb974c01 for instr_id 1957029
Prefetch d79e62ac9e01 for instr_id 1957060
Prefetch ee30bb974c41 for instr_id 1957102
Prefetch d79e62ac9e41 for instr_id 1957192
Prefetch ee30bb974c81 for instr_id 1957253
Prefetch d79e62ac9e81 for instr_id 1957316
Prefetch d79e62ac9ec1 for instr_id 1957432
Prefetch ee30bb974d01 for instr_id 1957470
Prefetch d79e62ac9f01 for instr_id 1957560
Prefetch d79e62ac9f41 for instr_id 1957692
Prefetch ee30bb974d81 for instr_id 1957727
Prefetch d79e62ac9f81 for instr_id 1957822
Prefetch ee30bb974dc1 for instr_id 1957867
Prefetch d79e62ac9fc1 for instr_id 1957944
Prefetch 8deda8644001 for instr_id 1958056
Prefetch ee30bb974e01 for instr_id 1958073
Prefetch ee30bb974e41 for instr_id 1958098
Prefetch 8deda8644041 for instr_id 1958184
Prefetch ee30bb974e81 for instr_id 1958247
Prefetch 8deda8644081 for instr_id 1958308
Prefetch ee30bb974ec1 for instr_id 1958341
Prefetch 8deda86440c1 for instr_id 1958432
Prefetch ee30bb974f01 for instr_id 1958467
Prefetch 8deda8644101 for instr_id 1958560
Prefetch ee30bb974f41 for instr_id 1958602
Prefetch 8deda8644141 for instr_id 1958688
Prefetch ee30bb974f81 for instr_id 1958725
Prefetch 8deda8644181 for instr_id 1958822
Prefetch ee30bb974fc1 for instr_id 1958859
Prefetch 8deda86441c1 for instr_id 1958954
Prefetch 8deda8695001 for instr_id 1958991
Prefetch 8deda8644201 for instr_id 1959080
Prefetch 8deda8644241 for instr_id 1959192
Prefetch 8deda86950c1 for instr_id 1959370
Prefetch 8deda86442c1 for instr_id 1959428
Prefetch 8deda8695101 for instr_id 1959467
Prefetch 8deda8644301 for instr_id 1959552
Prefetch 8deda8695141 for instr_id 1959620
Prefetch 8deda8644341 for instr_id 1959670
Prefetch 8deda8695181 for instr_id 1959701
Prefetch 8deda8644381 for instr_id 1959794
Prefetch 8deda86951c1 for instr_id 1959827
Prefetch 8deda86443c1 for instr_id 1959914
Prefetch 8deda8695201 for instr_id 1959951
Prefetch 8deda8644401 for instr_id 1960040
Prefetch 8deda8695241 for instr_id 1960112
Prefetch 8deda8644441 for instr_id 1960168
Prefetch 8deda8695281 for instr_id 1960205
Prefetch 8deda8644481 for instr_id 1960308
Prefetch 8deda86952c1 for instr_id 1960345
Prefetch 8deda86444c1 for instr_id 1960442
Prefetch 8deda8695301 for instr_id 1960479
Prefetch 8deda8644501 for instr_id 1960562
Prefetch 8deda8644541 for instr_id 1960674
Prefetch 8deda8695381 for instr_id 1960716
Prefetch 8deda8644581 for instr_id 1960798
Prefetch 8deda86445c1 for instr_id 1960910
Prefetch 8deda8644601 for instr_id 1961022
Prefetch 8deda8695441 for instr_id 1961074
Prefetch 8deda8644641 for instr_id 1961142
Prefetch 8deda8644681 for instr_id 1961256
Prefetch 8deda8695481 for instr_id 1961280
Prefetch 8deda86954c1 for instr_id 1961296
Prefetch 8deda86446c1 for instr_id 1961374
Prefetch 8deda8695501 for instr_id 1961461
Prefetch 8deda8644701 for instr_id 1961488
Prefetch 8deda8695541 for instr_id 1961527
Prefetch 8deda8644741 for instr_id 1961624
Prefetch 8deda8695581 for instr_id 1961659
Prefetch 8deda8644781 for instr_id 1961744
Prefetch 8deda86955c1 for instr_id 1961824
Prefetch 8deda86447c1 for instr_id 1961866
Prefetch 8deda8695601 for instr_id 1961929
Prefetch 8deda8644801 for instr_id 1961988
Prefetch 8deda8695641 for instr_id 1962093
Prefetch 8deda8644841 for instr_id 1962106
Prefetch 8deda8695681 for instr_id 1962165
Prefetch 8deda8644881 for instr_id 1962222
Prefetch 8deda86448c1 for instr_id 1962336
Prefetch 8deda8695701 for instr_id 1962371
Prefetch 8deda8644901 for instr_id 1962464
Prefetch 8deda8695741 for instr_id 1962510
Prefetch 8deda8644941 for instr_id 1962600
Prefetch 8deda8695781 for instr_id 1962633
Prefetch 8deda8644981 for instr_id 1962718
Prefetch 8deda86957c1 for instr_id 1962756
Prefetch 8deda86449c1 for instr_id 1962846
Prefetch 8deda8644a01 for instr_id 1962964
Prefetch 8deda8695801 for instr_id 1962974
Prefetch 8deda8695841 for instr_id 1963039
Prefetch 8deda8644a41 for instr_id 1963080
Prefetch 8deda8695881 for instr_id 1963118
Prefetch 8deda8695901 for instr_id 1963359
Prefetch 8deda8644b01 for instr_id 1963444
Prefetch 8deda8695941 for instr_id 1963507
Prefetch 8deda8644b41 for instr_id 1963566
Prefetch 8deda8644b81 for instr_id 1963686
Prefetch 8deda8644bc1 for instr_id 1963814
Prefetch 8deda8644c01 for instr_id 1963952
Prefetch 8deda8644c81 for instr_id 1964192
Prefetch 8deda8644cc1 for instr_id 1964306
Prefetch 8deda8695bc1 for instr_id 1964726
Prefetch 8deda8644dc1 for instr_id 1964792
Prefetch 8deda8644e81 for instr_id 1965164
Prefetch 8deda8644ec1 for instr_id 1965296
Prefetch 8deda8644f01 for instr_id 1965424
Prefetch 8deda8644f41 for instr_id 1965542
Prefetch 8deda8644f81 for instr_id 1965654
Prefetch 309dcdc670c1 for instr_id 1966246
Prefetch 309dcdc67101 for instr_id 1966358
Prefetch 309dcdc67141 for instr_id 1966480
Prefetch 309dcdc96041 for instr_id 1966910
Prefetch 309dcdc96081 for instr_id 1966981
Prefetch 309dcdc96141 for instr_id 1967358
Prefetch 309dcdc961c1 for instr_id 1967594
Prefetch fdfd3a8c5701 for instr_id 1973371
Prefetch fdfd3a8c5741 for instr_id 1973380
Prefetch a213218a7c1 for instr_id 1973382
Prefetch a213218a801 for instr_id 1973378
Prefetch 28d7cf470a41 for instr_id 1973383
Prefetch 28d7cf471fc1 for instr_id 1973384
Prefetch a213218b1c1 for instr_id 1973387
Prefetch 28d7cf472301 for instr_id 1973394
Prefetch 28d7cf473441 for instr_id 1973395
Prefetch 28d7cf473481 for instr_id 1973504
Prefetch 98f5690d9641 for instr_id 1973398
Prefetch 98f5690d9681 for instr_id 1973416
Prefetch 98f5690d9581 for instr_id 1973577
Prefetch 98f5690d95c1 for instr_id 1973584
Prefetch 28d7cf4734c1 for instr_id 1973728
Prefetch 28d7cf473501 for instr_id 1973952
Prefetch 28d7cf473541 for instr_id 1974176
Prefetch 98f5690d9541 for instr_id 1974221
Prefetch 28d7cf474241 for instr_id 1974389
Prefetch 28d7cf473581 for instr_id 1974396
Prefetch 28d7cf4735c1 for instr_id 1974624
Prefetch 98f5690d98c1 for instr_id 1974634
Prefetch 98f5690d9901 for instr_id 1974669
Prefetch 28d7cf473601 for instr_id 1974848
Prefetch 28d7cf473641 for instr_id 1975072
Prefetch 28d7cf473681 for instr_id 1975296
Prefetch 28d7cf4736c1 for instr_id 1975520
Prefetch 28d7cf473701 for instr_id 1975744
Prefetch 28d7cf473741 for instr_id 1975968
Prefetch 28d7cf473781 for instr_id 1976192
Prefetch 28d7cf4737c1 for instr_id 1976419
Prefetch 28d7cf473801 for instr_id 1976640
Prefetch 28d7cf473841 for instr_id 1976864
Prefetch 28d7cf472341 for instr_id 1976922
Prefetch 28d7cf473881 for instr_id 1977091
Prefetch 28d7cf474281 for instr_id 1977084
Prefetch 28d7cf4738c1 for instr_id 1977312
Prefetch 28d7cf473901 for instr_id 1977536
Prefetch 28d7cf473941 for instr_id 1977756
Prefetch 28d7cf472381 for instr_id 1977846
Prefetch 28d7cf473981 for instr_id 1977987
Prefetch 28d7cf4739c1 for instr_id 1978208
Prefetch 28d7cf473a01 for instr_id 1978432
Prefetch 28d7cf473a41 for instr_id 1978656
Prefetch 28d7cf4723c1 for instr_id 1978812
Prefetch 28d7cf4742c1 for instr_id 1978834
Prefetch 28d7cf473a81 for instr_id 1978880
Prefetch 28d7cf473ac1 for instr_id 1979104
Prefetch 28d7cf473b01 for instr_id 1979328
Prefetch 28d7cf473b41 for instr_id 1979552
Prefetch 28d7cf472401 for instr_id 1979750
Prefetch 28d7cf473b81 for instr_id 1979776
Prefetch 28d7cf473bc1 for instr_id 1980000
Prefetch 28d7cf473c01 for instr_id 1980224
Prefetch 28d7cf473c41 for instr_id 1980451
Prefetch 28d7cf472441 for instr_id 1980660
Prefetch 28d7cf473c81 for instr_id 1980672
Prefetch 28d7cf474301 for instr_id 1980780
Prefetch 28d7cf473cc1 for instr_id 1980896
Prefetch 28d7cf473d01 for instr_id 1981120
Prefetch 28d7cf473d41 for instr_id 1981347
Prefetch 28d7cf473d81 for instr_id 1981568
Prefetch 28d7cf472481 for instr_id 1981654
Prefetch 28d7cf473dc1 for instr_id 1981792
Prefetch 28d7cf473e01 for instr_id 1982016
Prefetch 28d7cf473e41 for instr_id 1982240
Prefetch 28d7cf473e81 for instr_id 1982464
Prefetch 28d7cf4724c1 for instr_id 1982655
Prefetch 28d7cf473ec1 for instr_id 1982688
Prefetch 28d7cf474341 for instr_id 1982803
Prefetch 28d7cf473f01 for instr_id 1982912
Prefetch 28d7cf473f41 for instr_id 1983136
Prefetch 28d7cf473f81 for instr_id 1983363
Prefetch 28d7cf473fc1 for instr_id 1983584
Prefetch 28d7cf472501 for instr_id 1983691
Prefetch 28d7cf475001 for instr_id 1983808
Prefetch 28d7cf475041 for instr_id 1984032
Prefetch 28d7cf475081 for instr_id 1984256
Prefetch 28d7cf4750c1 for instr_id 1984476
Prefetch 28d7cf472541 for instr_id 1984664
Prefetch 28d7cf475101 for instr_id 1984704
Prefetch 28d7cf474381 for instr_id 1984833
Prefetch 28d7cf475141 for instr_id 1984928
Prefetch 28d7cf475181 for instr_id 1985152
Prefetch 28d7cf4751c1 for instr_id 1985376
Prefetch 28d7cf472581 for instr_id 1985581
Prefetch 28d7cf475201 for instr_id 1985600
Prefetch 28d7cf475241 for instr_id 1985824
Prefetch 28d7cf475281 for instr_id 1986048
Prefetch 28d7cf4752c1 for instr_id 1986272
Prefetch 28d7cf475301 for instr_id 1986496
Prefetch 28d7cf4725c1 for instr_id 1986568
Prefetch 28d7cf4743c1 for instr_id 1986681
Prefetch 28d7cf475341 for instr_id 1986720
Prefetch 28d7cf475381 for instr_id 1986944
Prefetch 28d7cf4753c1 for instr_id 1987168
Prefetch 28d7cf475401 for instr_id 1987392
Prefetch 28d7cf475441 for instr_id 1987616
Prefetch 28d7cf472601 for instr_id 1987709
Prefetch 28d7cf475481 for instr_id 1987840
Prefetch 28d7cf4754c1 for instr_id 1988067
Prefetch 28d7cf475501 for instr_id 1988288
Prefetch 28d7cf472641 for instr_id 1988514
Prefetch 28d7cf475541 for instr_id 1988515
Prefetch 28d7cf474401 for instr_id 1988669
Prefetch 28d7cf475581 for instr_id 1988736
Prefetch 28d7cf4755c1 for instr_id 1988960
Prefetch 28d7cf475601 for instr_id 1989187
Prefetch 28d7cf475641 for instr_id 1989408
Prefetch 28d7cf472681 for instr_id 1989424
Prefetch 28d7cf475681 for instr_id 1989632
Prefetch 28d7cf4756c1 for instr_id 1989856
Prefetch 28d7cf475701 for instr_id 1990080
Prefetch 28d7cf475741 for instr_id 1990304
Prefetch 28d7cf475781 for instr_id 1990528
Prefetch 28d7cf4757c1 for instr_id 1990752
Prefetch 28d7cf4726c1 for instr_id 1990971
Prefetch 28d7cf475801 for instr_id 1990972
Prefetch 28d7cf474441 for instr_id 1990986
Prefetch 28d7cf475841 for instr_id 1991200
Prefetch 28d7cf475881 for instr_id 1991424
Prefetch 28d7cf472701 for instr_id 1991622
Prefetch 28d7cf4758c1 for instr_id 1991648
Prefetch 28d7cf475901 for instr_id 1991868
Prefetch 28d7cf475941 for instr_id 1992096
Prefetch 28d7cf475981 for instr_id 1992320
Prefetch 28d7cf472741 for instr_id 1992455
Prefetch 28d7cf474481 for instr_id 1992470
Prefetch 28d7cf4759c1 for instr_id 1992544
Prefetch 28d7cf475a01 for instr_id 1992768
Prefetch 28d7cf475a41 for instr_id 1992995
Prefetch 28d7cf472781 for instr_id 1993064
Prefetch 28d7cf475a81 for instr_id 1993210
Prefetch 28d7cf475ac1 for instr_id 1993441
Prefetch 28d7cf475b01 for instr_id 1993662
Prefetch 28d7cf4727c1 for instr_id 1993734
Prefetch 28d7cf4744c1 for instr_id 1993749
Prefetch 28d7cf475b41 for instr_id 1993886
Prefetch 28d7cf475b81 for instr_id 1994110
Prefetch 28d7cf475bc1 for instr_id 1994334
Prefetch 28d7cf472801 for instr_id 1994497
Prefetch 28d7cf475c01 for instr_id 1994558
Prefetch 28d7cf475c41 for instr_id 1994780
Prefetch 28d7cf475c81 for instr_id 1995002
Prefetch 28d7cf472841 for instr_id 1995207
Prefetch 28d7cf475cc1 for instr_id 1995226
Prefetch 28d7cf474501 for instr_id 1995299
Prefetch 28d7cf475d01 for instr_id 1995450
Prefetch 28d7cf475d41 for instr_id 1995674
Prefetch 28d7cf475d81 for instr_id 1995896
Prefetch 28d7cf472881 for instr_id 1995975
Prefetch 28d7cf475dc1 for instr_id 1996120
Prefetch 28d7cf475e01 for instr_id 1996344
Prefetch 28d7cf475e41 for instr_id 1996568
Prefetch 28d7cf4728c1 for instr_id 1996724
Prefetch 28d7cf475e81 for instr_id 1996792
Prefetch 28d7cf474541 for instr_id 1996870
Prefetch 28d7cf475ec1 for instr_id 1997014
Prefetch 28d7cf475f01 for instr_id 1997238
Prefetch 28d7cf472901 for instr_id 1997394
Prefetch 28d7cf475f41 for instr_id 1997462
Prefetch 28d7cf475f81 for instr_id 1997686
Prefetch 28d7cf475fc1 for instr_id 1997910
Prefetch 28d7cf477001 for instr_id 1998134
Prefetch 28d7cf472941 for instr_id 1998206
Prefetch 28d7cf474581 for instr_id 1998221
Prefetch 28d7cf477041 for instr_id 1998358
Prefetch 28d7cf477081 for instr_id 1998582
Prefetch 28d7cf4770c1 for instr_id 1998804
Prefetch 28d7cf472981 for instr_id 1998946
Prefetch 28d7cf477101 for instr_id 1999028
Prefetch 98f5690d9241 for instr_id 1999213
Prefetch 28d7cf477141 for instr_id 1999252
Prefetch 28d7cf477181 for instr_id 1999476
Prefetch 28d7cf4771c1 for instr_id 1999700
Prefetch 28d7cf4729c1 for instr_id 1999926
Prefetch 28d7cf477201 for instr_id 1999927
Heartbeat CPU 0 instructions: 10000001 cycles: 16102559 heartbeat IPC: 0.621019 cumulative IPC: 0.571915 (Simulation time: 0 hr 0 min 13 sec) 

Warmup complete CPU 0 instructions: 10000001 cycles: 16102559 (Simulation time: 0 hr 0 min 13 sec) 

Finished CPU 0 instructions: 1000002 cycles: 2227788 cumulative IPC: 0.448877 (Simulation time: 0 hr 0 min 14 sec) 

ChampSim completed all CPUs

Region of Interest Statistics

CPU 0 cumulative IPC: 0.448877 instructions: 1000002 cycles: 2227788
L1D TOTAL     ACCESS:     167168  HIT:     143722  MISS:      23446
L1D LOAD      ACCESS:     130649  HIT:     107528  MISS:      23121
L1D RFO       ACCESS:      36519  HIT:      36194  MISS:        325
L1D PREFETCH  ACCESS:          0  HIT:          0  MISS:          0
L1D WRITEBACK ACCESS:          0  HIT:          0  MISS:          0
L1D PREFETCH  REQUESTED:          0  ISSUED:          0  USEFUL:          0  USELESS:          0
L1D AVERAGE MISS LATENCY: 141.014 cycles
L1I TOTAL     ACCESS:     179593  HIT:     179593  MISS:          0
L1I LOAD      ACCESS:     179593  HIT:     179593  MISS:          0
L1I RFO       ACCESS:          0  HIT:          0  MISS:          0
L1I PREFETCH  ACCESS:          0  HIT:          0  MISS:          0
L1I WRITEBACK ACCESS:          0  HIT:          0  MISS:          0
L1I PREFETCH  REQUESTED:          0  ISSUED:          0  USEFUL:          0  USELESS:          0
L1I AVERAGE MISS LATENCY: nan cycles
L2C TOTAL     ACCESS:      23773  HIT:       8137  MISS:      15636
L2C LOAD      ACCESS:      23121  HIT:       7811  MISS:      15310
L2C RFO       ACCESS:        325  HIT:          0  MISS:        325
L2C PREFETCH  ACCESS:          0  HIT:          0  MISS:          0
L2C WRITEBACK ACCESS:        327  HIT:        326  MISS:          1
L2C PREFETCH  REQUESTED:          0  ISSUED:          0  USEFUL:          0  USELESS:          0
L2C AVERAGE MISS LATENCY: 186.065 cycles
LLC TOTAL     ACCESS:      15920  HIT:        435  MISS:      15485
LLC LOAD      ACCESS:      15310  HIT:        150  MISS:      15160
LLC RFO       ACCESS:        325  HIT:          0  MISS:        325
LLC PREFETCH  ACCESS:          0  HIT:          0  MISS:          0
LLC WRITEBACK ACCESS:        285  HIT:        285  MISS:          0
LLC PREFETCH  REQUESTED:          0  ISSUED:          0  USEFUL:          0  USELESS:          0
LLC AVERAGE MISS LATENCY: 156.211 cycles
Major fault: 0 Minor fault: 3428
CPU 0 LLC from file prefetcher final stats

DRAM Statistics
 CHANNEL 0
 RQ ROW_BUFFER_HIT:       7404  ROW_BUFFER_MISS:       8081
 DBUS_CONGESTED:      14681
 WQ ROW_BUFFER_HIT:       1484  ROW_BUFFER_MISS:        939  FULL:          0

 AVG_CONGESTED_CYCLE: 5

CPU 0 Branch Prediction Accuracy: 97.5799% MPKI: 2.72799 Average ROB Occupancy at Mispredict: 153.015

Branch types
NOT_BRANCH: 887284 88.7282%
BRANCH_DIRECT_JUMP: 1468 0.1468%
BRANCH_INDIRECT: 0 0%
BRANCH_CONDITIONAL: 102591 10.2591%
BRANCH_DIRECT_CALL: 4331 0.433099%
BRANCH_INDIRECT_CALL: 0 0%
BRANCH_RETURN: 4331 0.433099%
BRANCH_OTHER: 0 0%

gzip: error writing to output: Broken pipe
gzip: /Users/DHRUVA/Desktop/ML-DPC/ChampSimTraces/spec06/482.sphinx3-s2.trace.gz: uncompress failed
